Molecule-1
  WLViewer          3D                             0

294324  0  0  0  0  0  0  0  0999 V2000
    8.4610    7.6020   12.9606 C   0  0  0  0  0  0  0  0  0  0
   -8.4610   -7.6020  -12.9606 C   0  0  0  0  0  0  0  0  0  0
    3.2142    3.9875    9.6689 C   0  0  0  0  0  0  0  0  0  0
    6.9677    7.7804   12.6890 C   0  0  0  0  0  0  0  0  0  0
   -6.9677   -7.7804  -12.6890 C   0  0  0  0  0  0  0  0  0  0
    4.7074    3.8091    9.9406 C   0  0  0  0  0  0  0  0  0  0
    6.2859    7.4265   11.5561 C   0  0  0  0  0  0  0  0  0  0
   -6.2859   -7.4265  -11.5561 C   0  0  0  0  0  0  0  0  0  0
    5.3893    4.1630   11.0735 C   0  0  0  0  0  0  0  0  0  0
    4.9234    7.6251   11.4897 C   0  0  0  0  0  0  0  0  0  0
   -4.9234   -7.6251  -11.4897 C   0  0  0  0  0  0  0  0  0  0
    6.7518    3.9644   11.1399 C   0  0  0  0  0  0  0  0  0  0
    4.2486    8.2076   12.5437 C   0  0  0  0  0  0  0  0  0  0
   -4.2486   -8.2076  -12.5437 C   0  0  0  0  0  0  0  0  0  0
    7.4266    3.3818   10.0859 C   0  0  0  0  0  0  0  0  0  0
    4.9328    8.5835   13.6770 C   0  0  0  0  0  0  0  0  0  0
   -4.9328   -8.5835  -13.6770 C   0  0  0  0  0  0  0  0  0  0
    6.7424    3.0060    8.9525 C   0  0  0  0  0  0  0  0  0  0
    6.2929    8.3560   13.7691 C   0  0  0  0  0  0  0  0  0  0
   -6.2929   -8.3560  -13.7691 C   0  0  0  0  0  0  0  0  0  0
    5.3823    3.2335    8.8605 C   0  0  0  0  0  0  0  0  0  0
    7.1861    8.6625   14.9568 C   0  0  1  0  0  0  0  0  0  0
   -7.1861   -8.6625  -14.9568 C   0  0  1  0  0  0  0  0  0  0
    4.4891    2.9270    7.6728 C   0  0  1  0  0  0  0  0  0  0
    7.8702    7.3558   15.3076 C   0  0  0  0  0  0  0  0  0  0
   -7.8702   -7.3558  -15.3076 C   0  0  0  0  0  0  0  0  0  0
    3.8049    4.2337    7.3220 C   0  0  0  0  0  0  0  0  0  0
    7.9181    6.7702   16.5474 C   0  0  0  0  0  0  0  0  0  0
   -7.9181   -6.7702  -16.5474 C   0  0  0  0  0  0  0  0  0  0
    3.7571    4.8193    6.0822 C   0  0  0  0  0  0  0  0  0  0
    8.6233    5.5812   16.7066 C   0  0  0  0  0  0  0  0  0  0
   -8.6233   -5.5812  -16.7066 C   0  0  0  0  0  0  0  0  0  0
    3.0519    6.0083    5.9230 C   0  0  0  0  0  0  0  0  0  0
    9.2642    4.9927   15.6410 C   0  0  0  0  0  0  0  0  0  0
   -9.2642   -4.9927  -15.6410 C   0  0  0  0  0  0  0  0  0  0
    2.4109    6.5968    6.9886 C   0  0  0  0  0  0  0  0  0  0
    9.2257    5.5922   14.3862 C   0  0  0  0  0  0  0  0  0  0
   -9.2257   -5.5922  -14.3862 C   0  0  0  0  0  0  0  0  0  0
    2.4495    5.9973    8.2434 C   0  0  0  0  0  0  0  0  0  0
    8.5357    6.7767   14.2385 C   0  0  0  0  0  0  0  0  0  0
   -8.5357   -6.7767  -14.2385 C   0  0  0  0  0  0  0  0  0  0
    3.1395    4.8128    8.3911 C   0  0  0  0  0  0  0  0  0  0
    8.9981    8.9874   13.3590 C   0  0  0  0  0  0  0  0  0  0
   -8.9981   -8.9874  -13.3590 C   0  0  0  0  0  0  0  0  0  0
    2.6771    2.6021    9.2706 C   0  0  0  0  0  0  0  0  0  0
   10.0570    9.6464   12.7999 C   0  0  0  0  0  0  0  0  0  0
  -10.0570   -9.6464  -12.7999 C   0  0  0  0  0  0  0  0  0  0
    1.6182    1.9431    9.8297 C   0  0  0  0  0  0  0  0  0  0
   10.4294   10.8811   13.2963 C   0  0  0  0  0  0  0  0  0  0
  -10.4294  -10.8811  -13.2963 C   0  0  0  0  0  0  0  0  0  0
    1.2457    0.7084    9.3333 C   0  0  0  0  0  0  0  0  0  0
    9.7336   11.4416   14.3428 C   0  0  0  0  0  0  0  0  0  0
   -9.7336  -11.4416  -14.3428 C   0  0  0  0  0  0  0  0  0  0
    1.9416    0.1479    8.2868 C   0  0  0  0  0  0  0  0  0  0
    8.6676   10.7860   14.9078 C   0  0  0  0  0  0  0  0  0  0
   -8.6676  -10.7860  -14.9078 C   0  0  0  0  0  0  0  0  0  0
    3.0075    0.8035    7.7218 C   0  0  0  0  0  0  0  0  0  0
    8.3022    9.5502   14.4286 C   0  0  0  0  0  0  0  0  0  0
   -8.3022   -9.5502  -14.4286 C   0  0  0  0  0  0  0  0  0  0
    3.3730    2.0393    8.2010 C   0  0  0  0  0  0  0  0  0  0
    9.1837    6.9943   11.8584 C   0  0  0  0  0  0  0  0  0  0
   -9.1837   -6.9943  -11.8584 C   0  0  0  0  0  0  0  0  0  0
    2.4915    4.5952   10.7712 C   0  0  0  0  0  0  0  0  0  0
    9.7768    6.4425   10.9816 C   0  0  0  0  0  0  0  0  0  0
   -9.7768   -6.4425  -10.9816 C   0  0  0  0  0  0  0  0  0  0
    1.8984    5.1470   11.6480 C   0  0  0  0  0  0  0  0  0  0
   10.4796    5.7621    9.9322 C   0  0  0  0  0  0  0  0  0  0
  -10.4796   -5.7621   -9.9322 C   0  0  0  0  0  0  0  0  0  0
    1.1955    5.8274   12.6974 C   0  0  0  0  0  0  0  0  0  0
   11.1311    4.5555   10.1889 C   0  0  0  0  0  0  0  0  0  0
  -11.1311   -4.5555  -10.1889 C   0  0  0  0  0  0  0  0  0  0
    0.5441    7.0340   12.4407 C   0  0  0  0  0  0  0  0  0  0
   11.7943    3.9025    9.1745 C   0  0  0  0  0  0  0  0  0  0
  -11.7943   -3.9025   -9.1745 C   0  0  0  0  0  0  0  0  0  0
   -0.1191    7.6870   13.4551 C   0  0  0  0  0  0  0  0  0  0
   11.8211    4.4332    7.8945 C   0  0  0  0  0  0  0  0  0  0
  -11.8211   -4.4332   -7.8945 C   0  0  0  0  0  0  0  0  0  0
   -0.1459    7.1563   14.7351 C   0  0  0  0  0  0  0  0  0  0
   11.1790    5.6490    7.6573 C   0  0  0  0  0  0  0  0  0  0
  -11.1790   -5.6490   -7.6573 C   0  0  0  0  0  0  0  0  0  0
    0.4962    5.9405   14.9722 C   0  0  0  0  0  0  0  0  0  0
   10.5042    6.2927    8.6619 C   0  0  0  0  0  0  0  0  0  0
  -10.5042   -6.2927   -8.6619 C   0  0  0  0  0  0  0  0  0  0
    1.1710    5.2968   13.9676 C   0  0  0  0  0  0  0  0  0  0
   12.4959    3.7572    6.8396 C   0  0  0  0  0  0  0  0  0  0
  -12.4959   -3.7572   -6.8396 C   0  0  0  0  0  0  0  0  0  0
   -0.8208    7.8323   15.7900 C   0  0  0  0  0  0  0  0  0  0
   13.0470    3.1775    5.9450 C   0  0  0  0  0  0  0  0  0  0
  -13.0470   -3.1775   -5.9450 C   0  0  0  0  0  0  0  0  0  0
   -1.3718    8.4120   16.6845 C   0  0  0  0  0  0  0  0  0  0
   13.7335    2.4705    4.8782 C   0  0  0  0  0  0  0  0  0  0
  -13.7335   -2.4705   -4.8782 C   0  0  0  0  0  0  0  0  0  0
   -2.0583    9.1190   17.7514 C   0  0  0  0  0  0  0  0  0  0
   14.9115    3.2443    4.3089 C   0  0  0  0  0  0  0  0  0  0
  -14.9115   -3.2443   -4.3089 C   0  0  0  0  0  0  0  0  0  0
   -3.2364    8.3452   18.3206 C   0  0  0  0  0  0  0  0  0  0
   15.3237    4.4987    4.6749 C   0  0  0  0  0  0  0  0  0  0
  -15.3237   -4.4987   -4.6749 C   0  0  0  0  0  0  0  0  0  0
   -3.6485    7.0908   17.9547 C   0  0  0  0  0  0  0  0  0  0
   16.4024    5.0818    4.0377 C   0  0  0  0  0  0  0  0  0  0
  -16.4024   -5.0818   -4.0377 C   0  0  0  0  0  0  0  0  0  0
   -4.7273    6.5077   18.5919 C   0  0  0  0  0  0  0  0  0  0
   17.0598    4.4046    3.0210 C   0  0  0  0  0  0  0  0  0  0
  -17.0598   -4.4046   -3.0210 C   0  0  0  0  0  0  0  0  0  0
   -5.3846    7.1849   19.6086 C   0  0  0  0  0  0  0  0  0  0
   16.6418    3.1443    2.6467 C   0  0  0  0  0  0  0  0  0  0
  -16.6418   -3.1443   -2.6467 C   0  0  0  0  0  0  0  0  0  0
   -4.9666    8.4452   19.9829 C   0  0  0  0  0  0  0  0  0  0
   15.5700    2.5509    3.2879 C   0  0  0  0  0  0  0  0  0  0
  -15.5700   -2.5509   -3.2879 C   0  0  0  0  0  0  0  0  0  0
   -3.8948    9.0386   19.3417 C   0  0  0  0  0  0  0  0  0  0
   14.9617    1.2171    2.9729 C   0  0  1  0  0  0  0  0  0  0
  -14.9617   -1.2171   -2.9729 C   0  0  2  0  0  0  0  0  0  0
   -3.2866   10.3724   19.6567 C   0  0  2  0  0  0  0  0  0  0
   13.5082    1.5018    2.6449 C   0  0  0  0  0  0  0  0  0  0
  -13.5082   -1.5018   -2.6449 C   0  0  0  0  0  0  0  0  0  0
   -1.8330   10.0877   19.9847 C   0  0  0  0  0  0  0  0  0  0
   12.8509    1.1826    1.4836 C   0  0  0  0  0  0  0  0  0  0
  -12.8509   -1.1826   -1.4836 C   0  0  0  0  0  0  0  0  0  0
   -1.1757   10.4069   21.1460 C   0  0  0  0  0  0  0  0  0  0
   11.4977    1.4677    1.3686 C   0  0  0  0  0  0  0  0  0  0
  -11.4977   -1.4677   -1.3686 C   0  0  0  0  0  0  0  0  0  0
    0.1775   10.1217   21.2610 C   0  0  0  0  0  0  0  0  0  0
   10.8135    2.0837    2.4111 C   0  0  0  0  0  0  0  0  0  0
  -10.8135   -2.0837   -2.4111 C   0  0  0  0  0  0  0  0  0  0
    0.8616    9.5058   20.2185 C   0  0  0  0  0  0  0  0  0  0
   11.4930    2.4411    3.5598 C   0  0  0  0  0  0  0  0  0  0
  -11.4930   -2.4411   -3.5598 C   0  0  0  0  0  0  0  0  0  0
    0.1821    9.1484   19.0698 C   0  0  0  0  0  0  0  0  0  0
   12.8322    2.1535    3.6736 C   0  0  0  0  0  0  0  0  0  0
  -12.8322   -2.1535   -3.6736 C   0  0  0  0  0  0  0  0  0  0
   -1.1570    9.4360   18.9560 C   0  0  0  0  0  0  0  0  0  0
   14.2577    1.0949    5.3031 C   0  0  0  0  0  0  0  0  0  0
  -14.2577   -1.0949   -5.3031 C   0  0  0  0  0  0  0  0  0  0
   -2.5825   10.4946   17.3265 C   0  0  0  0  0  0  0  0  0  0
   14.0733    0.4885    6.5266 C   0  0  0  0  0  0  0  0  0  0
  -14.0733   -0.4885   -6.5266 C   0  0  0  0  0  0  0  0  0  0
   -2.3981   11.1010   16.1029 C   0  0  0  0  0  0  0  0  0  0
   14.5262   -0.8090    6.7095 C   0  0  0  0  0  0  0  0  0  0
  -14.5262    0.8090   -6.7095 C   0  0  0  0  0  0  0  0  0  0
   -2.8511   12.3985   15.9201 C   0  0  0  0  0  0  0  0  0  0
   15.1812   -1.4770    5.6922 C   0  0  0  0  0  0  0  0  0  0
  -15.1812    1.4770   -5.6922 C   0  0  0  0  0  0  0  0  0  0
   -3.5061   13.0664   16.9374 C   0  0  0  0  0  0  0  0  0  0
   15.3960   -0.8508    4.4741 C   0  0  0  0  0  0  0  0  0  0
  -15.3960    0.8508   -4.4741 C   0  0  0  0  0  0  0  0  0  0
   -3.7209   12.4403   18.1554 C   0  0  0  0  0  0  0  0  0  0
   14.9197    0.4339    4.2714 C   0  0  0  0  0  0  0  0  0  0
  -14.9197   -0.4339   -4.2714 C   0  0  0  0  0  0  0  0  0  0
   -3.2445   11.1556   18.3582 C   0  0  0  0  0  0  0  0  0  0
    6.8428    0.6124    5.2627 C   0  0  0  0  0  0  0  0  0  0
   -6.8428   -0.6124   -5.2627 C   0  0  0  0  0  0  0  0  0  0
    4.8324   10.9771   17.3668 C   0  0  0  0  0  0  0  0  0  0
    7.8434    1.4349    5.7994 C   0  0  0  0  0  0  0  0  0  0
   -7.8434   -1.4349   -5.7994 C   0  0  0  0  0  0  0  0  0  0
    3.8318   10.1546   16.8301 C   0  0  0  0  0  0  0  0  0  0
    7.9660    2.7467    5.4198 C   0  0  0  0  0  0  0  0  0  0
   -7.9660   -2.7467   -5.4198 C   0  0  0  0  0  0  0  0  0  0
    3.7092    8.8428   17.2098 C   0  0  0  0  0  0  0  0  0  0
    7.1055    3.2534    4.4698 C   0  0  0  0  0  0  0  0  0  0
   -7.1055   -3.2534   -4.4698 C   0  0  0  0  0  0  0  0  0  0
    4.5697    8.3361   18.1598 C   0  0  0  0  0  0  0  0  0  0
    6.1633    2.4542    3.8950 C   0  0  0  0  0  0  0  0  0  0
   -6.1633   -2.4542   -3.8950 C   0  0  0  0  0  0  0  0  0  0
    5.5118    9.1353   18.7346 C   0  0  0  0  0  0  0  0  0  0
    6.0256    1.1412    4.2943 C   0  0  0  0  0  0  0  0  0  0
   -6.0256   -1.1412   -4.2943 C   0  0  0  0  0  0  0  0  0  0
    5.6496   10.4483   18.3353 C   0  0  0  0  0  0  0  0  0  0
    6.7004   -0.7884    5.7053 C   0  0  0  0  0  0  0  0  0  0
   -6.7004    0.7884   -5.7053 C   0  0  0  0  0  0  0  0  0  0
    4.9748   12.3779   16.9242 C   0  0  0  0  0  0  0  0  0  0
    9.0016    3.6098    6.0990 C   0  0  0  0  0  0  0  0  0  0
   -9.0016   -3.6098   -6.0990 C   0  0  0  0  0  0  0  0  0  0
    2.6736    7.9797   16.5306 C   0  0  0  0  0  0  0  0  0  0
    6.7389    7.0527   10.8345 H   0  0  0  0  0  0  0  0  0  0
   -6.7389   -7.0527  -10.8345 H   0  0  0  0  0  0  0  0  0  0
    4.9363    4.5368   11.7951 H   0  0  0  0  0  0  0  0  0  0
    4.4552    7.3645   10.7303 H   0  0  0  0  0  0  0  0  0  0
   -4.4552   -7.3645  -10.7303 H   0  0  0  0  0  0  0  0  0  0
    7.2199    4.2250   11.8993 H   0  0  0  0  0  0  0  0  0  0
    3.3309    8.3473   12.4881 H   0  0  0  0  0  0  0  0  0  0
   -3.3309   -8.3473  -12.4881 H   0  0  0  0  0  0  0  0  0  0
    8.3442    3.2422   10.1415 H   0  0  0  0  0  0  0  0  0  0
    4.4809    8.9907   14.3807 H   0  0  0  0  0  0  0  0  0  0
   -4.4809   -8.9907  -14.3807 H   0  0  0  0  0  0  0  0  0  0
    7.1942    2.5988    8.2489 H   0  0  0  0  0  0  0  0  0  0
    6.7027    9.0592   15.7103 H   0  0  0  0  0  0  0  0  0  0
   -6.7027   -9.0592  -15.7103 H   0  0  0  0  0  0  0  0  0  0
    4.9725    2.5303    6.9192 H   0  0  0  0  0  0  0  0  0  0
    7.4850    7.1625   17.2717 H   0  0  0  0  0  0  0  0  0  0
   -7.4850   -7.1625  -17.2717 H   0  0  0  0  0  0  0  0  0  0
    4.1902    4.4270    5.3579 H   0  0  0  0  0  0  0  0  0  0
    8.6618    5.1800   17.5442 H   0  0  0  0  0  0  0  0  0  0
   -8.6618   -5.1800  -17.5442 H   0  0  0  0  0  0  0  0  0  0
    3.0134    6.4095    5.0853 H   0  0  0  0  0  0  0  0  0  0
    9.7231    4.1923   15.7601 H   0  0  0  0  0  0  0  0  0  0
   -9.7231   -4.1923  -15.7601 H   0  0  0  0  0  0  0  0  0  0
    1.9521    7.3972    6.8695 H   0  0  0  0  0  0  0  0  0  0
    9.6577    5.2010   13.6607 H   0  0  0  0  0  0  0  0  0  0
   -9.6577   -5.2010  -13.6607 H   0  0  0  0  0  0  0  0  0  0
    2.0175    6.3885    8.9689 H   0  0  0  0  0  0  0  0  0  0
   10.5240    9.2670   12.0920 H   0  0  0  0  0  0  0  0  0  0
  -10.5240   -9.2670  -12.0920 H   0  0  0  0  0  0  0  0  0  0
    1.1512    2.3225   10.5376 H   0  0  0  0  0  0  0  0  0  0
   11.1521   11.3332   12.9185 H   0  0  0  0  0  0  0  0  0  0
  -11.1521  -11.3332  -12.9185 H   0  0  0  0  0  0  0  0  0  0
    0.5230    0.2563    9.7111 H   0  0  0  0  0  0  0  0  0  0
    9.9881   12.2732   14.6712 H   0  0  0  0  0  0  0  0  0  0
   -9.9881  -12.2732  -14.6712 H   0  0  0  0  0  0  0  0  0  0
    1.6871   -0.6837    7.9584 H   0  0  0  0  0  0  0  0  0  0
    8.1960   11.1746   15.6088 H   0  0  0  0  0  0  0  0  0  0
   -8.1960  -11.1746  -15.6088 H   0  0  0  0  0  0  0  0  0  0
    3.4792    0.4149    7.0208 H   0  0  0  0  0  0  0  0  0  0
   11.1171    4.1922   11.0445 H   0  0  0  0  0  0  0  0  0  0
  -11.1171   -4.1922  -11.0445 H   0  0  0  0  0  0  0  0  0  0
    0.5581    7.3973   11.5851 H   0  0  0  0  0  0  0  0  0  0
   12.2274    3.0985    9.3480 H   0  0  0  0  0  0  0  0  0  0
  -12.2274   -3.0985   -9.3480 H   0  0  0  0  0  0  0  0  0  0
   -0.5522    8.4910   13.2816 H   0  0  0  0  0  0  0  0  0  0
   11.2093    6.0263    6.8074 H   0  0  0  0  0  0  0  0  0  0
  -11.2093   -6.0263   -6.8074 H   0  0  0  0  0  0  0  0  0  0
    0.4658    5.5632   15.8222 H   0  0  0  0  0  0  0  0  0  0
   10.0605    7.0920    8.4854 H   0  0  0  0  0  0  0  0  0  0
  -10.0605   -7.0920   -8.4854 H   0  0  0  0  0  0  0  0  0  0
    1.6147    4.4975   14.1441 H   0  0  0  0  0  0  0  0  0  0
   14.8765    4.9567    5.3503 H   0  0  0  0  0  0  0  0  0  0
  -14.8765   -4.9567   -5.3503 H   0  0  0  0  0  0  0  0  0  0
   -3.2013    6.6328   17.2792 H   0  0  0  0  0  0  0  0  0  0
   16.6885    5.9296    4.2925 H   0  0  0  0  0  0  0  0  0  0
  -16.6885   -5.9296   -4.2925 H   0  0  0  0  0  0  0  0  0  0
   -5.0133    5.6599   18.3371 H   0  0  0  0  0  0  0  0  0  0
   17.7836    4.8002    2.5921 H   0  0  0  0  0  0  0  0  0  0
  -17.7836   -4.8002   -2.5921 H   0  0  0  0  0  0  0  0  0  0
   -6.1084    6.7893   20.0374 H   0  0  0  0  0  0  0  0  0  0
   17.0808    2.6944    1.9614 H   0  0  0  0  0  0  0  0  0  0
  -17.0808   -2.6944   -1.9614 H   0  0  0  0  0  0  0  0  0  0
   -5.4056    8.8951   20.6681 H   0  0  0  0  0  0  0  0  0  0
   15.4299    0.7431    2.2549 H   0  0  0  0  0  0  0  0  0  0
  -15.4299   -0.7431   -2.2549 H   0  0  0  0  0  0  0  0  0  0
   -3.7547   10.8464   20.3746 H   0  0  0  0  0  0  0  0  0  0
   13.3074    0.7800    0.7816 H   0  0  0  0  0  0  0  0  0  0
  -13.3074   -0.7800   -0.7816 H   0  0  0  0  0  0  0  0  0  0
   -1.6322   10.8095   21.8479 H   0  0  0  0  0  0  0  0  0  0
   11.0447    1.2464    0.5867 H   0  0  0  0  0  0  0  0  0  0
  -11.0447   -1.2464   -0.5867 H   0  0  0  0  0  0  0  0  0  0
    0.6305   10.3431   22.0429 H   0  0  0  0  0  0  0  0  0  0
    9.9029    2.2534    2.3343 H   0  0  0  0  0  0  0  0  0  0
   -9.9029   -2.2534   -2.3343 H   0  0  0  0  0  0  0  0  0  0
    1.7723    9.3361   20.2953 H   0  0  0  0  0  0  0  0  0  0
   11.0470    2.8737    4.2516 H   0  0  0  0  0  0  0  0  0  0
  -11.0470   -2.8737   -4.2516 H   0  0  0  0  0  0  0  0  0  0
    0.6281    8.7158   18.3780 H   0  0  0  0  0  0  0  0  0  0
   13.6506    0.9432    7.2206 H   0  0  0  0  0  0  0  0  0  0
  -13.6506   -0.9432   -7.2206 H   0  0  0  0  0  0  0  0  0  0
   -1.9754   10.6463   15.4090 H   0  0  0  0  0  0  0  0  0  0
   14.3873   -1.2340    7.5253 H   0  0  0  0  0  0  0  0  0  0
  -14.3873    1.2340   -7.5253 H   0  0  0  0  0  0  0  0  0  0
   -2.7121   12.8235   15.1043 H   0  0  0  0  0  0  0  0  0  0
   15.4789   -2.3485    5.8253 H   0  0  0  0  0  0  0  0  0  0
  -15.4789    2.3485   -5.8253 H   0  0  0  0  0  0  0  0  0  0
   -3.8038   13.9380   16.8043 H   0  0  0  0  0  0  0  0  0  0
   15.8572   -1.2903    3.7971 H   0  0  0  0  0  0  0  0  0  0
  -15.8572    1.2903   -3.7971 H   0  0  0  0  0  0  0  0  0  0
   -4.1820   12.8798   18.8324 H   0  0  0  0  0  0  0  0  0  0
    8.4353    1.0837    6.4242 H   0  0  0  0  0  0  0  0  0  0
   -8.4353   -1.0837   -6.4242 H   0  0  0  0  0  0  0  0  0  0
    3.2399   10.5057   16.2054 H   0  0  0  0  0  0  0  0  0  0
    7.1674    4.1463    4.2194 H   0  0  0  0  0  0  0  0  0  0
   -7.1674   -4.1463   -4.2194 H   0  0  0  0  0  0  0  0  0  0
    4.5078    7.4432   18.4102 H   0  0  0  0  0  0  0  0  0  0
    5.6111    2.7952    3.2301 H   0  0  0  0  0  0  0  0  0  0
   -5.6111   -2.7952   -3.2301 H   0  0  0  0  0  0  0  0  0  0
    6.0641    8.7943   19.3995 H   0  0  0  0  0  0  0  0  0  0
    5.3717    0.6075    3.9046 H   0  0  0  0  0  0  0  0  0  0
   -5.3717   -0.6075   -3.9046 H   0  0  0  0  0  0  0  0  0  0
    6.3034   10.9820   18.7250 H   0  0  0  0  0  0  0  0  0  0
    5.8936   -1.1591    5.3407 H   0  0  0  0  0  0  0  0  0  0
   -5.8936    1.1591   -5.3407 H   0  0  0  0  0  0  0  0  0  0
    5.7815   12.7485   17.2889 H   0  0  0  0  0  0  0  0  0  0
    6.6619   -0.8197    6.6633 H   0  0  0  0  0  0  0  0  0  0
   -6.6619    0.8197   -6.6633 H   0  0  0  0  0  0  0  0  0  0
    5.0133   12.4092   15.9663 H   0  0  0  0  0  0  0  0  0  0
    7.4534   -1.2990    5.3995 H   0  0  0  0  0  0  0  0  0  0
   -7.4534    1.2990   -5.3995 H   0  0  0  0  0  0  0  0  0  0
    4.2217   12.8885   17.2301 H   0  0  0  0  0  0  0  0  0  0
    9.3962    4.2034    5.4557 H   0  0  0  0  0  0  0  0  0  0
   -9.3962   -4.2034   -5.4557 H   0  0  0  0  0  0  0  0  0  0
    2.2790    7.3861   17.1739 H   0  0  0  0  0  0  0  0  0  0
    9.6834    3.0515    6.4794 H   0  0  0  0  0  0  0  0  0  0
   -9.6834   -3.0515   -6.4794 H   0  0  0  0  0  0  0  0  0  0
    1.9918    8.5380   16.1502 H   0  0  0  0  0  0  0  0  0  0
    8.5836    4.1233    6.7935 H   0  0  0  0  0  0  0  0  0  0
   -8.5836   -4.1233   -6.7935 H   0  0  0  0  0  0  0  0  0  0
    3.0916    7.4662   15.8361 H   0  0  0  0  0  0  0  0  0  0
  1  4  1  0  0  0
  1 43  1  0  0  0
  1 61  1  0  0  0
  1 40  1  0  0  0
  4 19  1  0  0  0
  4  7  1  0  0  0
  7 10  1  0  0  0
  7175  1  0  0  0
 10178  1  0  0  0
 10 13  1  0  0  0
 13 16  1  0  0  0
 13181  1  0  0  0
 16 19  1  0  0  0
 16184  1  0  0  0
 19 22  1  0  0  0
 22 25  1  0  0  0
 22 58  1  0  0  0
 22187  1  0  0  0
 25 40  1  0  0  0
 25 28  1  0  0  0
 28 31  1  0  0  0
 28190  1  0  0  0
 31193  1  0  0  0
 31 34  1  0  0  0
 34196  1  0  0  0
 34 37  1  0  0  0
 37 40  1  0  0  0
 37199  1  0  0  0
 43 46  1  0  0  0
 43 58  1  0  0  0
 46 49  1  0  0  0
 46202  1  0  0  0
 49205  1  0  0  0
 49 52  1  0  0  0
 52208  1  0  0  0
 52 55  1  0  0  0
 55211  1  0  0  0
 55 58  1  0  0  0
 61 64  1  0  0  0
 64 67  1  0  0  0
 67 70  1  0  0  0
 67 82  1  0  0  0
 70 73  1  0  0  0
 70214  1  0  0  0
 73 76  1  0  0  0
 73217  1  0  0  0
 76 79  1  0  0  0
 76 85  1  0  0  0
 79 82  1  0  0  0
 79220  1  0  0  0
 82223  1  0  0  0
 85 88  1  0  0  0
 88 91  1  0  0  0
 91 94  1  0  0  0
 91130  1  0  0  0
 91133  1  0  0  0
 94 97  1  0  0  0
 94109  1  0  0  0
 97100  1  0  0  0
 97226  1  0  0  0
100229  1  0  0  0
100103  1  0  0  0
103232  1  0  0  0
103106  1  0  0  0
106109  1  0  0  0
106235  1  0  0  0
109112  1  0  0  0
112148  1  0  0  0
112115  1  0  0  0
112238  1  0  0  0
115130  1  0  0  0
115118  1  0  0  0
118121  1  0  0  0
118241  1  0  0  0
121124  1  0  0  0
121244  1  0  0  0
124247  1  0  0  0
124127  1  0  0  0
127130  1  0  0  0
127250  1  0  0  0
133148  1  0  0  0
133136  1  0  0  0
136139  1  0  0  0
136253  1  0  0  0
139256  1  0  0  0
139142  1  0  0  0
142145  1  0  0  0
142259  1  0  0  0
145148  1  0  0  0
145262  1  0  0  0
151169  1  0  0  0
151166  1  0  0  0
151154  1  0  0  0
154265  1  0  0  0
154157  1  0  0  0
157172  1  0  0  0
157160  1  0  0  0
160163  1  0  0  0
160268  1  0  0  0
163166  1  0  0  0
163271  1  0  0  0
166274  1  0  0  0
169280  1  0  0  0
169277  1  0  0  0
169283  1  0  0  0
172286  1  0  0  0
172292  1  0  0  0
172289  1  0  0  0
  2  5  1  0  0  0
  2 44  1  0  0  0
  2 41  1  0  0  0
  2 62  1  0  0  0
  5 20  1  0  0  0
  5  8  1  0  0  0
  8 11  1  0  0  0
  8176  1  0  0  0
 11179  1  0  0  0
 11 14  1  0  0  0
 14182  1  0  0  0
 14 17  1  0  0  0
 17 20  1  0  0  0
 17185  1  0  0  0
 20 23  1  0  0  0
 23 59  1  0  0  0
 23 26  1  0  0  0
 23188  1  0  0  0
 26 41  1  0  0  0
 26 29  1  0  0  0
 29191  1  0  0  0
 29 32  1  0  0  0
 32 35  1  0  0  0
 32194  1  0  0  0
 35197  1  0  0  0
 35 38  1  0  0  0
 38 41  1  0  0  0
 38200  1  0  0  0
 44 47  1  0  0  0
 44 59  1  0  0  0
 47203  1  0  0  0
 47 50  1  0  0  0
 50206  1  0  0  0
 50 53  1  0  0  0
 53209  1  0  0  0
 53 56  1  0  0  0
 56 59  1  0  0  0
 56212  1  0  0  0
 62 65  1  0  0  0
 65 68  1  0  0  0
 68 71  1  0  0  0
 68 83  1  0  0  0
 71 74  1  0  0  0
 71215  1  0  0  0
 74 77  1  0  0  0
 74218  1  0  0  0
 77 80  1  0  0  0
 77 86  1  0  0  0
 80221  1  0  0  0
 80 83  1  0  0  0
 83224  1  0  0  0
 86 89  1  0  0  0
 89 92  1  0  0  0
 92131  1  0  0  0
 92 95  1  0  0  0
 92134  1  0  0  0
 95 98  1  0  0  0
 95110  1  0  0  0
 98101  1  0  0  0
 98227  1  0  0  0
101230  1  0  0  0
101104  1  0  0  0
104107  1  0  0  0
104233  1  0  0  0
107236  1  0  0  0
107110  1  0  0  0
110113  1  0  0  0
113149  1  0  0  0
113116  1  0  0  0
113239  1  0  0  0
116131  1  0  0  0
116119  1  0  0  0
119122  1  0  0  0
119242  1  0  0  0
122125  1  0  0  0
122245  1  0  0  0
125248  1  0  0  0
125128  1  0  0  0
128251  1  0  0  0
128131  1  0  0  0
134149  1  0  0  0
134137  1  0  0  0
137140  1  0  0  0
137254  1  0  0  0
140143  1  0  0  0
140257  1  0  0  0
143260  1  0  0  0
143146  1  0  0  0
146149  1  0  0  0
146263  1  0  0  0
152170  1  0  0  0
152155  1  0  0  0
152167  1  0  0  0
155266  1  0  0  0
155158  1  0  0  0
158173  1  0  0  0
158161  1  0  0  0
161269  1  0  0  0
161164  1  0  0  0
164167  1  0  0  0
164272  1  0  0  0
167275  1  0  0  0
170284  1  0  0  0
170278  1  0  0  0
170281  1  0  0  0
173287  1  0  0  0
173290  1  0  0  0
173293  1  0  0  0
  3  6  1  0  0  0
  3 45  1  0  0  0
  3 42  1  0  0  0
  3 63  1  0  0  0
  6 21  1  0  0  0
  6  9  1  0  0  0
  9 12  1  0  0  0
  9177  1  0  0  0
 12180  1  0  0  0
 12 15  1  0  0  0
 15183  1  0  0  0
 15 18  1  0  0  0
 18 21  1  0  0  0
 18186  1  0  0  0
 21 24  1  0  0  0
 24 60  1  0  0  0
 24 27  1  0  0  0
 24189  1  0  0  0
 27 42  1  0  0  0
 27 30  1  0  0  0
 30192  1  0  0  0
 30 33  1  0  0  0
 33 36  1  0  0  0
 33195  1  0  0  0
 36198  1  0  0  0
 36 39  1  0  0  0
 39 42  1  0  0  0
 39201  1  0  0  0
 45 48  1  0  0  0
 45 60  1  0  0  0
 48204  1  0  0  0
 48 51  1  0  0  0
 51207  1  0  0  0
 51 54  1  0  0  0
 54210  1  0  0  0
 54 57  1  0  0  0
 57 60  1  0  0  0
 57213  1  0  0  0
 63 66  1  0  0  0
 66 69  1  0  0  0
 69 72  1  0  0  0
 69 84  1  0  0  0
 72 75  1  0  0  0
 72216  1  0  0  0
 75 78  1  0  0  0
 75219  1  0  0  0
 78 81  1  0  0  0
 78 87  1  0  0  0
 81222  1  0  0  0
 81 84  1  0  0  0
 84225  1  0  0  0
 87 90  1  0  0  0
 90 93  1  0  0  0
 93132  1  0  0  0
 93 96  1  0  0  0
 93135  1  0  0  0
 96 99  1  0  0  0
 96111  1  0  0  0
 99102  1  0  0  0
 99228  1  0  0  0
102231  1  0  0  0
102105  1  0  0  0
105108  1  0  0  0
105234  1  0  0  0
108237  1  0  0  0
108111  1  0  0  0
111114  1  0  0  0
114150  1  0  0  0
114117  1  0  0  0
114240  1  0  0  0
117132  1  0  0  0
117120  1  0  0  0
120123  1  0  0  0
120243  1  0  0  0
123126  1  0  0  0
123246  1  0  0  0
126249  1  0  0  0
126129  1  0  0  0
129252  1  0  0  0
129132  1  0  0  0
135150  1  0  0  0
135138  1  0  0  0
138141  1  0  0  0
138255  1  0  0  0
141144  1  0  0  0
141258  1  0  0  0
144261  1  0  0  0
144147  1  0  0  0
147150  1  0  0  0
147264  1  0  0  0
153171  1  0  0  0
153156  1  0  0  0
153168  1  0  0  0
156267  1  0  0  0
156159  1  0  0  0
159174  1  0  0  0
159162  1  0  0  0
162270  1  0  0  0
162165  1  0  0  0
165168  1  0  0  0
165273  1  0  0  0
168276  1  0  0  0
171285  1  0  0  0
171279  1  0  0  0
171282  1  0  0  0
174288  1  0  0  0
174291  1  0  0  0
174294  1  0  0  0
M  END
