573
Molecule Eelec= 0 Enucl= 0 Etot= 0
Si        20.365000        25.796000        23.080000  
Si        20.365000        23.080000        25.796000  
Si        19.007000        24.438000        27.153000  
Si        20.365000        25.796000        28.511000  
Si        20.365000        23.080000        31.227000  
Si        19.007000        24.438000        32.584000  
Si        20.365000        25.796000        33.942000  
Si        20.365000        31.227000        23.080000  
Si        19.007000        27.153000        24.438000  
Si        20.365000        28.511000        25.796000  
Si        17.650000        28.511000        28.511000  
Si        19.007000        29.869000        27.153000  
Si        20.365000        31.227000        28.511000  
Si        19.007000        27.153000        29.869000  
Si        17.650000        31.227000        31.227000  
Si        20.365000        28.511000        31.227000  
Si        19.007000        29.869000        32.584000  
Si        20.365000        31.227000        33.942000  
Si        20.365000        28.511000        36.657000  
Si        19.007000        32.584000        24.438000  
Si        20.365000        33.942000        25.796000  
Si        20.365000        36.657000        28.511000  
Si        19.007000        32.584000        29.869000  
Si        20.365000        33.942000        31.227000  
Si        25.796000        20.365000        23.080000  
Si        23.080000        20.365000        25.796000  
Si        24.438000        19.007000        27.153000  
Si        25.796000        20.365000        28.511000  
Si        23.080000        20.365000        31.227000  
Si        24.438000        19.007000        32.584000  
Si        25.796000        20.365000        33.942000  
Si        23.080000        25.796000        20.365000  
Si        25.796000        23.080000        20.365000  
Si        23.080000        23.080000        23.080000  
Si        24.438000        24.438000        21.723000  
Si        25.796000        25.796000        23.080000  
Si        21.723000        24.438000        24.438000  
Si        24.438000        21.723000        24.438000  
Si        23.080000        25.796000        25.796000  
Si        25.796000        23.080000        25.796000  
Si        21.723000        21.723000        27.153000  
Si        23.080000        23.080000        28.511000  
Si        24.438000        24.438000        27.153000  
Si        25.796000        25.796000        28.511000  
Si        21.723000        24.438000        29.869000  
Si        24.438000        21.723000        29.869000  
Si        23.080000        25.796000        31.227000  
Si        25.796000        23.080000        31.227000  
Si        21.723000        21.723000        32.584000  
Si        23.080000        23.080000        33.942000  
Si        24.438000        24.438000        32.584000  
Si        25.796000        25.796000        33.942000  
Si        21.723000        24.438000        35.300000  
Si        24.438000        21.723000        35.300000  
Si        23.080000        25.796000        36.657000  
Si        25.796000        23.080000        36.657000  
Si        24.438000        24.438000        38.015000  
Si        25.796000        25.796000        39.373000  
Si        24.438000        27.153000        19.007000  
Si        23.080000        31.227000        20.365000  
Si        25.796000        28.511000        20.365000  
Si        21.723000        27.153000        21.723000  
Si        23.080000        28.511000        23.080000  
Si        24.438000        29.869000        21.723000  
Si        25.796000        31.227000        23.080000  
Si        21.723000        29.869000        24.438000  
Si        24.438000        27.153000        24.438000  
Si        23.080000        31.227000        25.796000  
Si        25.796000        28.511000        25.796000  
Si        21.723000        27.153000        27.153000  
Si        23.080000        28.511000        28.511000  
Si        24.438000        29.869000        27.153000  
Si        25.796000        31.227000        28.511000  
Si        21.723000        29.869000        29.869000  
Si        24.438000        27.153000        29.869000  
Si        23.080000        31.227000        31.227000  
Si        25.796000        28.511000        31.227000  
Si        21.723000        27.153000        32.584000  
Si        23.080000        28.511000        33.942000  
Si        24.438000        29.869000        32.584000  
Si        25.796000        31.227000        33.942000  
Si        21.723000        29.869000        35.300000  
Si        24.438000        27.153000        35.300000  
Si        23.080000        31.227000        36.657000  
Si        25.796000        28.511000        36.657000  
Si        21.723000        27.153000        38.015000  
Si        23.080000        28.511000        39.373000  
Si        24.438000        29.869000        38.015000  
Si        25.796000        31.227000        39.373000  
Si        24.438000        32.584000        19.007000  
Si        25.796000        33.942000        20.365000  
Si        21.723000        32.584000        21.723000  
Si        23.080000        33.942000        23.080000  
Si        24.438000        35.300000        21.723000  
Si        25.796000        36.657000        23.080000  
Si        21.723000        35.300000        24.438000  
Si        24.438000        32.584000        24.438000  
Si        23.080000        36.657000        25.796000  
Si        25.796000        33.942000        25.796000  
Si        21.723000        32.584000        27.153000  
Si        23.080000        33.942000        28.511000  
Si        24.438000        35.300000        27.153000  
Si        25.796000        36.657000        28.511000  
Si        21.723000        35.300000        29.869000  
Si        24.438000        32.584000        29.869000  
Si        23.080000        36.657000        31.227000  
Si        25.796000        33.942000        31.227000  
Si        21.723000        32.584000        32.584000  
Si        23.080000        33.942000        33.942000  
Si        24.438000        35.300000        32.584000  
Si        25.796000        36.657000        33.942000  
Si        21.723000        35.300000        35.300000  
Si        24.438000        32.584000        35.300000  
Si        25.796000        33.942000        36.657000  
Si        24.438000        35.300000        38.015000  
Si        24.438000        38.015000        24.438000  
Si        25.796000        39.373000        25.796000  
Si        21.723000        38.015000        27.153000  
Si        23.080000        39.373000        28.511000  
Si        24.438000        38.015000        29.869000  
Si        25.796000        39.373000        31.227000  
Si        24.438000        38.015000        35.300000  
Si        31.227000        20.365000        23.080000  
Si        27.153000        19.007000        24.438000  
Si        28.511000        20.365000        25.796000  
Si        28.511000        17.650000        28.511000  
Si        29.869000        19.007000        27.153000  
Si        31.227000        20.365000        28.511000  
Si        27.153000        19.007000        29.869000  
Si        28.511000        20.365000        31.227000  
Si        31.227000        17.650000        31.227000  
Si        29.869000        19.007000        32.584000  
Si        31.227000        20.365000        33.942000  
Si        28.511000        20.365000        36.657000  
Si        27.153000        24.438000        19.007000  
Si        28.511000        25.796000        20.365000  
Si        31.227000        23.080000        20.365000  
Si        27.153000        21.723000        21.723000  
Si        28.511000        23.080000        23.080000  
Si        29.869000        24.438000        21.723000  
Si        31.227000        25.796000        23.080000  
Si        27.153000        24.438000        24.438000  
Si        29.869000        21.723000        24.438000  
Si        28.511000        25.796000        25.796000  
Si        31.227000        23.080000        25.796000  
Si        27.153000        21.723000        27.153000  
Si        28.511000        23.080000        28.511000  
Si        29.869000        24.438000        27.153000  
Si        31.227000        25.796000        28.511000  
Si        27.153000        24.438000        29.869000  
Si        29.869000        21.723000        29.869000  
Si        28.511000        25.796000        31.227000  
Si        31.227000        23.080000        31.227000  
Si        27.153000        21.723000        32.584000  
Si        28.511000        23.080000        33.942000  
Si        29.869000        24.438000        32.584000  
Si        31.227000        25.796000        33.942000  
Si        27.153000        24.438000        35.300000  
Si        29.869000        21.723000        35.300000  
Si        28.511000        25.796000        36.657000  
Si        31.227000        23.080000        36.657000  
Si        27.153000        21.723000        38.015000  
Si        28.511000        23.080000        39.373000  
Si        29.869000        24.438000        38.015000  
Si        31.227000        25.796000        39.373000  
Si        28.511000        28.511000        17.650000  
Si        31.227000        31.227000        17.650000  
Si        27.153000        29.869000        19.007000  
Si        29.869000        27.153000        19.007000  
Si        28.511000        31.227000        20.365000  
Si        31.227000        28.511000        20.365000  
Si        27.153000        27.153000        21.723000  
Si        28.511000        28.511000        23.080000  
Si        29.869000        29.869000        21.723000  
Si        31.227000        31.227000        23.080000  
Si        27.153000        29.869000        24.438000  
Si        29.869000        27.153000        24.438000  
Si        28.511000        31.227000        25.796000  
Si        31.227000        28.511000        25.796000  
Si        27.153000        27.153000        27.153000  
Si        28.511000        28.511000        28.511000  
Si        29.869000        29.869000        27.153000  
Si        31.227000        31.227000        28.511000  
Si        27.153000        29.869000        29.869000  
Si        29.869000        27.153000        29.869000  
Si        28.511000        31.227000        31.227000  
Si        31.227000        28.511000        31.227000  
Si        27.153000        27.153000        32.584000  
Si        28.511000        28.511000        33.942000  
Si        29.869000        29.869000        32.584000  
Si        31.227000        31.227000        33.942000  
Si        27.153000        29.869000        35.300000  
Si        29.869000        27.153000        35.300000  
Si        28.511000        31.227000        36.657000  
Si        31.227000        28.511000        36.657000  
Si        27.153000        27.153000        38.015000  
Si        28.511000        28.511000        39.373000  
Si        29.869000        29.869000        38.015000  
Si        31.227000        31.227000        39.373000  
Si        27.153000        29.869000        40.730000  
Si        29.869000        27.153000        40.730000  
Si        29.869000        32.584000        19.007000  
Si        28.511000        36.657000        20.365000  
Si        31.227000        33.942000        20.365000  
Si        27.153000        32.584000        21.723000  
Si        28.511000        33.942000        23.080000  
Si        29.869000        35.300000        21.723000  
Si        31.227000        36.657000        23.080000  
Si        27.153000        35.300000        24.438000  
Si        29.869000        32.584000        24.438000  
Si        28.511000        36.657000        25.796000  
Si        31.227000        33.942000        25.796000  
Si        27.153000        32.584000        27.153000  
Si        28.511000        33.942000        28.511000  
Si        29.869000        35.300000        27.153000  
Si        31.227000        36.657000        28.511000  
Si        27.153000        35.300000        29.869000  
Si        29.869000        32.584000        29.869000  
Si        28.511000        36.657000        31.227000  
Si        31.227000        33.942000        31.227000  
Si        27.153000        32.584000        32.584000  
Si        28.511000        33.942000        33.942000  
Si        29.869000        35.300000        32.584000  
Si        31.227000        36.657000        33.942000  
Si        27.153000        35.300000        35.300000  
Si        29.869000        32.584000        35.300000  
Si        28.511000        36.657000        36.657000  
Si        31.227000        33.942000        36.657000  
Si        27.153000        32.584000        38.015000  
Si        28.511000        33.942000        39.373000  
Si        29.869000        35.300000        38.015000  
Si        27.153000        38.015000        21.723000  
Si        28.511000        39.373000        23.080000  
Si        29.869000        38.015000        24.438000  
Si        31.227000        39.373000        25.796000  
Si        27.153000        38.015000        27.153000  
Si        28.511000        39.373000        28.511000  
Si        29.869000        40.730000        27.153000  
Si        27.153000        40.730000        29.869000  
Si        29.869000        38.015000        29.869000  
Si        31.227000        39.373000        31.227000  
Si        27.153000        38.015000        32.584000  
Si        28.511000        39.373000        33.942000  
Si        29.869000        38.015000        35.300000  
Si        32.584000        19.007000        24.438000  
Si        33.942000        20.365000        25.796000  
Si        36.657000        20.365000        28.511000  
Si        32.584000        19.007000        29.869000  
Si        33.942000        20.365000        31.227000  
Si        32.584000        24.438000        19.007000  
Si        33.942000        25.796000        20.365000  
Si        32.584000        21.723000        21.723000  
Si        33.942000        23.080000        23.080000  
Si        35.300000        24.438000        21.723000  
Si        36.657000        25.796000        23.080000  
Si        32.584000        24.438000        24.438000  
Si        35.300000        21.723000        24.438000  
Si        33.942000        25.796000        25.796000  
Si        36.657000        23.080000        25.796000  
Si        32.584000        21.723000        27.153000  
Si        33.942000        23.080000        28.511000  
Si        35.300000        24.438000        27.153000  
Si        36.657000        25.796000        28.511000  
Si        32.584000        24.438000        29.869000  
Si        35.300000        21.723000        29.869000  
Si        33.942000        25.796000        31.227000  
Si        36.657000        23.080000        31.227000  
Si        32.584000        21.723000        32.584000  
Si        33.942000        23.080000        33.942000  
Si        35.300000        24.438000        32.584000  
Si        36.657000        25.796000        33.942000  
Si        32.584000        24.438000        35.300000  
Si        35.300000        21.723000        35.300000  
Si        33.942000        25.796000        36.657000  
Si        35.300000        24.438000        38.015000  
Si        32.584000        29.869000        19.007000  
Si        33.942000        31.227000        20.365000  
Si        36.657000        28.511000        20.365000  
Si        32.584000        27.153000        21.723000  
Si        33.942000        28.511000        23.080000  
Si        35.300000        29.869000        21.723000  
Si        36.657000        31.227000        23.080000  
Si        32.584000        29.869000        24.438000  
Si        35.300000        27.153000        24.438000  
Si        33.942000        31.227000        25.796000  
Si        36.657000        28.511000        25.796000  
Si        32.584000        27.153000        27.153000  
Si        33.942000        28.511000        28.511000  
Si        35.300000        29.869000        27.153000  
Si        36.657000        31.227000        28.511000  
Si        32.584000        29.869000        29.869000  
Si        35.300000        27.153000        29.869000  
Si        33.942000        31.227000        31.227000  
Si        36.657000        28.511000        31.227000  
Si        32.584000        27.153000        32.584000  
Si        33.942000        28.511000        33.942000  
Si        35.300000        29.869000        32.584000  
Si        36.657000        31.227000        33.942000  
Si        32.584000        29.869000        35.300000  
Si        35.300000        27.153000        35.300000  
Si        33.942000        31.227000        36.657000  
Si        36.657000        28.511000        36.657000  
Si        32.584000        27.153000        38.015000  
Si        33.942000        28.511000        39.373000  
Si        35.300000        29.869000        38.015000  
Si        32.584000        32.584000        21.723000  
Si        33.942000        33.942000        23.080000  
Si        35.300000        35.300000        21.723000  
Si        32.584000        35.300000        24.438000  
Si        35.300000        32.584000        24.438000  
Si        33.942000        36.657000        25.796000  
Si        36.657000        33.942000        25.796000  
Si        32.584000        32.584000        27.153000  
Si        33.942000        33.942000        28.511000  
Si        35.300000        35.300000        27.153000  
Si        36.657000        36.657000        28.511000  
Si        32.584000        35.300000        29.869000  
Si        35.300000        32.584000        29.869000  
Si        33.942000        36.657000        31.227000  
Si        36.657000        33.942000        31.227000  
Si        32.584000        32.584000        32.584000  
Si        33.942000        33.942000        33.942000  
Si        35.300000        35.300000        32.584000  
Si        36.657000        36.657000        33.942000  
Si        32.584000        35.300000        35.300000  
Si        35.300000        32.584000        35.300000  
Si        33.942000        36.657000        36.657000  
Si        36.657000        33.942000        36.657000  
Si        32.584000        32.584000        38.015000  
Si        35.300000        38.015000        24.438000  
Si        32.584000        38.015000        27.153000  
Si        33.942000        39.373000        28.511000  
Si        35.300000        38.015000        29.869000  
Si        32.584000        38.015000        32.584000  
Si        38.015000        24.438000        24.438000  
Si        39.373000        25.796000        25.796000  
Si        38.015000        21.723000        27.153000  
Si        39.373000        23.080000        28.511000  
Si        38.015000        24.438000        29.869000  
Si        39.373000        25.796000        31.227000  
Si        38.015000        24.438000        35.300000  
Si        38.015000        27.153000        21.723000  
Si        39.373000        28.511000        23.080000  
Si        38.015000        29.869000        24.438000  
Si        39.373000        31.227000        25.796000  
Si        38.015000        27.153000        27.153000  
Si        39.373000        28.511000        28.511000  
Si        40.730000        29.869000        27.153000  
Si        38.015000        29.869000        29.869000  
Si        40.730000        27.153000        29.869000  
Si        39.373000        31.227000        31.227000  
Si        38.015000        27.153000        32.584000  
Si        39.373000        28.511000        33.942000  
Si        38.015000        29.869000        35.300000  
Si        38.015000        35.300000        24.438000  
Si        38.015000        32.584000        27.153000  
Si        39.373000        33.942000        28.511000  
Si        38.015000        35.300000        29.869000  
Si        38.015000        32.584000        32.584000  
H        19.540000        24.970000        22.255000  
H        19.540000        22.255000        24.970000  
H        18.182000        23.613000        27.979000  
H        18.182000        25.264000        26.328000  
H        19.540000        22.255000        30.401000  
H        18.182000        23.613000        33.410000  
H        18.182000        25.264000        31.759000  
H        19.540000        26.622000        34.767000  
H        19.540000        30.401000        22.255000  
H        18.182000        26.328000        25.264000  
H        18.182000        27.979000        23.613000  
H        16.824000        29.337000        29.337000  
H        16.824000        27.686000        27.686000  
H        18.182000        30.695000        26.328000  
H        18.182000        26.328000        30.695000  
H        16.824000        32.052000        32.052000  
H        16.824000        30.401000        30.401000  
H        18.182000        29.043000        33.410000  
H        19.540000        32.052000        34.767000  
H        19.540000        27.686000        35.832000  
H        19.540000        29.337000        37.483000  
H        18.182000        31.759000        25.264000  
H        18.182000        33.410000        23.613000  
H        19.540000        34.767000        26.622000  
H        19.540000        37.483000        29.337000  
H        19.540000        35.832000        27.686000  
H        18.182000        33.410000        29.043000  
H        19.540000        34.767000        32.052000  
H        24.970000        19.540000        22.255000  
H        22.255000        19.540000        24.970000  
H        25.264000        18.182000        26.328000  
H        23.613000        18.182000        27.979000  
H        22.255000        19.540000        30.401000  
H        25.264000        18.182000        31.759000  
H        23.613000        18.182000        33.410000  
H        26.622000        19.540000        34.767000  
H        22.255000        24.970000        19.540000  
H        24.970000        22.255000        19.540000  
H        22.255000        22.255000        22.255000  
H        20.897000        20.897000        27.979000  
H        20.897000        20.897000        33.410000  
H        20.897000        23.613000        36.125000  
H        23.613000        20.897000        36.125000  
H        23.613000        23.613000        38.841000  
H        26.622000        24.970000        40.198000  
H        24.970000        26.622000        40.198000  
H        23.613000        27.979000        18.182000  
H        25.264000        26.328000        18.182000  
H        22.255000        30.401000        19.540000  
H        20.897000        27.979000        20.897000  
H        22.255000        32.052000        37.483000  
H        20.897000        26.328000        38.841000  
H        23.906000        27.686000        40.198000  
H        22.255000        29.337000        40.198000  
H        24.970000        32.052000        40.198000  
H        23.613000        33.410000        18.182000  
H        25.264000        31.759000        18.182000  
H        26.622000        34.767000        19.540000  
H        20.897000        33.410000        20.897000  
H        23.613000        36.125000        20.897000  
H        20.897000        36.125000        23.613000  
H        22.255000        37.483000        32.052000  
H        20.897000        34.474000        36.125000  
H        20.897000        36.125000        34.474000  
H        22.548000        36.125000        36.125000  
H        23.613000        34.474000        38.841000  
H        23.613000        36.125000        37.189000  
H        25.264000        36.125000        38.841000  
H        23.613000        38.841000        23.613000  
H        24.970000        40.198000        26.622000  
H        26.622000        40.198000        24.970000  
H        20.897000        38.841000        26.328000  
H        22.255000        40.198000        29.337000  
H        23.906000        40.198000        27.686000  
H        24.970000        40.198000        32.052000  
H        23.613000        37.189000        36.125000  
H        23.613000        38.841000        34.474000  
H        25.264000        38.841000        36.125000  
H        30.401000        19.540000        22.255000  
H        27.979000        18.182000        23.613000  
H        26.328000        18.182000        25.264000  
H        27.686000        16.824000        27.686000  
H        29.337000        16.824000        29.337000  
H        30.695000        18.182000        26.328000  
H        26.328000        18.182000        30.695000  
H        30.401000        16.824000        30.401000  
H        32.052000        16.824000        32.052000  
H        29.043000        18.182000        33.410000  
H        32.052000        19.540000        34.767000  
H        29.337000        19.540000        37.483000  
H        27.686000        19.540000        35.832000  
H        26.328000        25.264000        18.182000  
H        27.979000        23.613000        18.182000  
H        30.401000        22.255000        19.540000  
H        27.979000        20.897000        20.897000  
H        32.052000        22.255000        37.483000  
H        26.328000        20.897000        38.841000  
H        29.337000        22.255000        40.198000  
H        27.686000        23.906000        40.198000  
H        32.052000        24.970000        40.198000  
H        29.337000        29.337000        16.824000  
H        27.686000        27.686000        16.824000  
H        32.052000        32.052000        16.824000  
H        30.401000        30.401000        16.824000  
H        26.328000        30.695000        18.182000  
H        30.695000        26.328000        18.182000  
H        32.052000        30.401000        40.198000  
H        30.401000        32.052000        40.198000  
H        26.328000        29.043000        41.556000  
H        27.979000        30.694000        41.556000  
H        30.694000        27.979000        41.556000  
H        29.043000        26.328000        41.556000  
H        29.043000        33.410000        18.182000  
H        29.337000        37.483000        19.540000  
H        27.686000        35.832000        19.540000  
H        32.052000        34.767000        19.540000  
H        32.052000        37.483000        22.255000  
H        27.686000        37.483000        37.483000  
H        29.337000        33.116000        40.198000  
H        27.686000        34.767000        40.198000  
H        30.695000        36.125000        38.841000  
H        26.328000        38.841000        20.897000  
H        27.686000        40.198000        23.906000  
H        29.337000        40.198000        22.255000  
H        32.052000        40.198000        24.970000  
H        29.043000        41.556000        26.328000  
H        30.694000        41.556000        27.979000  
H        27.979000        41.556000        30.694000  
H        26.328000        41.556000        29.043000  
H        30.401000        40.198000        32.052000  
H        32.052000        40.198000        30.401000  
H        27.686000        40.198000        34.768000  
H        29.337000        40.198000        33.116000  
H        30.695000        38.841000        36.125000  
H        33.410000        18.182000        23.613000  
H        31.759000        18.182000        25.264000  
H        34.767000        19.540000        26.622000  
H        35.832000        19.540000        27.686000  
H        37.483000        19.540000        29.337000  
H        33.410000        18.182000        29.043000  
H        34.767000        19.540000        32.052000  
H        31.759000        25.264000        18.182000  
H        33.410000        23.613000        18.182000  
H        34.767000        26.622000        19.540000  
H        33.410000        20.897000        20.897000  
H        36.125000        23.613000        20.897000  
H        36.125000        20.897000        23.613000  
H        37.483000        22.255000        32.052000  
H        36.125000        20.897000        34.474000  
H        34.474000        20.897000        36.125000  
H        36.125000        22.548000        36.125000  
H        36.125000        23.613000        37.189000  
H        34.474000        23.613000        38.841000  
H        36.125000        25.264000        38.841000  
H        33.410000        29.043000        18.182000  
H        34.767000        32.052000        19.540000  
H        37.483000        29.337000        19.540000  
H        35.832000        27.686000        19.540000  
H        37.483000        32.052000        22.255000  
H        37.483000        27.686000        37.483000  
H        34.768000        27.686000        40.198000  
H        33.116000        29.337000        40.198000  
H        36.125000        30.695000        38.841000  
H        34.474000        36.125000        20.897000  
H        36.125000        34.474000        20.897000  
H        36.125000        36.125000        22.548000  
H        37.483000        37.483000        27.686000  
H        35.832000        37.483000        34.767000  
H        37.483000        37.483000        33.116000  
H        37.483000        35.832000        34.768000  
H        33.116000        37.483000        37.483000  
H        34.768000        37.483000        35.832000  
H        34.768000        35.832000        37.483000  
H        37.483000        34.767000        35.832000  
H        37.483000        33.116000        37.483000  
H        35.832000        34.768000        37.483000  
H        33.410000        33.410000        38.841000  
H        34.474000        38.841000        23.613000  
H        36.125000        37.189000        23.613000  
H        36.125000        38.841000        25.264000  
H        33.116000        40.198000        29.337000  
H        34.767000        40.198000        27.686000  
H        36.125000        38.841000        30.695000  
H        33.410000        38.841000        33.410000  
H        38.841000        23.613000        23.613000  
H        40.198000        26.622000        24.970000  
H        40.198000        24.970000        26.622000  
H        38.841000        20.897000        26.328000  
H        40.198000        23.906000        27.686000  
H        40.198000        22.255000        29.337000  
H        40.198000        24.970000        32.052000  
H        38.841000        23.613000        34.474000  
H        37.189000        23.613000        36.125000  
H        38.841000        25.264000        36.125000  
H        38.841000        26.328000        20.897000  
H        40.198000        29.337000        22.255000  
H        40.198000        27.686000        23.906000  
H        40.198000        32.052000        24.970000  
H        41.556000        30.694000        27.979000  
H        41.556000        29.043000        26.328000  
H        41.556000        26.328000        29.043000  
H        41.556000        27.979000        30.694000  
H        40.198000        32.052000        30.401000  
H        40.198000        30.401000        32.052000  
H        40.198000        29.337000        33.116000  
H        40.198000        27.686000        34.767000  
H        38.841000        30.695000        36.125000  
H        37.189000        36.125000        23.613000  
H        38.841000        34.474000        23.613000  
H        38.841000        36.125000        25.264000  
H        40.198000        34.768000        27.686000  
H        40.198000        33.116000        29.337000  
H        38.841000        36.125000        30.695000  
H        38.841000        33.410000        33.410000  
