     5  
Molecule frame=      0 
    C    -0.000   0.000  -0.000   
    H    -0.000  -0.000  -2.011   
    H     1.896  -0.000   0.670   
    H    -0.948   1.642   0.670   
    H    -0.948  -1.642   0.670   
     5  
Molecule frame=      1 
    C    -0.000   0.000  -0.000   
    H    -0.000  -0.000  -2.020   
    H     1.905  -0.000   0.673   
    H    -0.952   1.649   0.673   
    H    -0.952  -1.649   0.673   
     5  
Molecule frame=      2 
    C    -0.000   0.000  -0.000   
    H    -0.000   0.000  -2.047   
    H     1.930   0.000   0.682   
    H    -0.965   1.671   0.682   
    H    -0.965  -1.671   0.682   
     5  
Molecule frame=      3 
    C    -0.000  -0.000  -0.000   
    H    -0.000   0.000  -2.084   
    H     1.965   0.000   0.695   
    H    -0.983   1.702   0.695   
    H    -0.983  -1.702   0.695   
     5  
Molecule frame=      4 
    C    -0.000   0.000  -0.000   
    H    -0.000   0.000  -2.126   
    H     2.005   0.000   0.709   
    H    -1.002   1.736   0.709   
    H    -1.002  -1.736   0.709   
     5  
Molecule frame=      5 
    C    -0.000  -0.000  -0.000   
    H    -0.000  -0.000  -2.165   
    H     2.041   0.000   0.722   
    H    -1.020   1.767   0.722   
    H    -1.020  -1.767   0.722   
     5  
Molecule frame=      6 
    C    -0.000  -0.000  -0.000   
    H     0.000  -0.000  -2.194   
    H     2.068   0.000   0.731   
    H    -1.034   1.791   0.731   
    H    -1.034  -1.791   0.731   
     5  
Molecule frame=      7 
    C    -0.000  -0.000  -0.000   
    H     0.000  -0.000  -2.209   
    H     2.082   0.000   0.736   
    H    -1.041   1.803   0.736   
    H    -1.041  -1.803   0.736   
     5  
Molecule frame=      8 
    C    -0.000   0.000  -0.000   
    H     0.000  -0.000  -2.208   
    H     2.081   0.000   0.736   
    H    -1.041   1.803   0.736   
    H    -1.041  -1.803   0.736   
     5  
Molecule frame=      9 
    C    -0.000   0.000  -0.000   
    H     0.000  -0.000  -2.191   
    H     2.066   0.000   0.730   
    H    -1.033   1.789   0.730   
    H    -1.033  -1.789   0.730   
     5  
Molecule frame=     10 
    C    -0.000   0.000  -0.000   
    H     0.000  -0.000  -2.161   
    H     2.037   0.000   0.720   
    H    -1.019   1.764   0.720   
    H    -1.019  -1.764   0.720   
     5  
Molecule frame=     11 
    C    -0.000   0.000   0.000   
    H     0.000  -0.000  -2.121   
    H     2.000   0.000   0.707   
    H    -1.000   1.732   0.707   
    H    -1.000  -1.732   0.707   
     5  
Molecule frame=     12 
    C     0.000   0.000   0.000   
    H     0.000  -0.000  -2.080   
    H     1.961   0.000   0.693   
    H    -0.980   1.698   0.693   
    H    -0.980  -1.698   0.693   
     5  
Molecule frame=     13 
    C     0.000   0.000   0.000   
    H     0.000  -0.000  -2.043   
    H     1.926   0.000   0.681   
    H    -0.963   1.668   0.681   
    H    -0.963  -1.668   0.681   
     5  
Molecule frame=     14 
    C     0.000   0.000   0.000   
    H     0.000  -0.000  -2.018   
    H     1.903   0.000   0.673   
    H    -0.951   1.648   0.673   
    H    -0.951  -1.648   0.673   
     5  
Molecule frame=     15 
    C     0.000   0.000   0.000   
    H     0.000  -0.000  -2.011   
    H     1.896   0.000   0.670   
    H    -0.948   1.642   0.670   
    H    -0.948  -1.642   0.670   
     5  
Molecule frame=     16 
    C     0.000   0.000   0.000   
    H     0.000  -0.000  -2.022   
    H     1.907   0.000   0.674   
    H    -0.953   1.651   0.674   
    H    -0.953  -1.651   0.674   
     5  
Molecule frame=     17 
    C     0.000  -0.000   0.000   
    H     0.000  -0.000  -2.050   
    H     1.933   0.000   0.683   
    H    -0.967   1.674   0.683   
    H    -0.967  -1.674   0.683   
     5  
Molecule frame=     18 
    C     0.000  -0.000   0.000   
    H     0.000  -0.000  -2.089   
    H     1.970   0.000   0.696   
    H    -0.985   1.706   0.696   
    H    -0.985  -1.706   0.696   
     5  
Molecule frame=     19 
    C     0.000  -0.000   0.000   
    H    -0.000  -0.000  -2.131   
    H     2.009   0.000   0.710   
    H    -1.005   1.740   0.710   
    H    -1.005  -1.740   0.710   
     5  
Molecule frame=     20 
    C     0.000  -0.000   0.000   
    H    -0.000  -0.000  -2.169   
    H     2.045   0.000   0.723   
    H    -1.022   1.771   0.723   
    H    -1.022  -1.771   0.723   
     5  
Molecule frame=     21 
    C     0.000  -0.000   0.000   
    H    -0.000  -0.000  -2.196   
    H     2.070   0.000   0.732   
    H    -1.035   1.793   0.732   
    H    -1.035  -1.793   0.732   
     5  
Molecule frame=     22 
    C     0.000  -0.000   0.000   
    H    -0.000  -0.000  -2.209   
    H     2.083   0.000   0.736   
    H    -1.041   1.804   0.736   
    H    -1.041  -1.804   0.736   
     5  
Molecule frame=     23 
    C     0.000  -0.000   0.000   
    H    -0.000  -0.000  -2.206   
    H     2.080   0.000   0.735   
    H    -1.040   1.802   0.735   
    H    -1.040  -1.802   0.735   
     5  
Molecule frame=     24 
    C     0.000  -0.000   0.000   
    H    -0.000  -0.000  -2.188   
    H     2.063   0.000   0.729   
    H    -1.031   1.786   0.729   
    H    -1.031  -1.786   0.729   
     5  
Molecule frame=     25 
    C     0.000  -0.000   0.000   
    H    -0.000   0.000  -2.156   
    H     2.033   0.000   0.719   
    H    -1.017   1.761   0.719   
    H    -1.017  -1.761   0.719   
     5  
Molecule frame=     26 
    C     0.000  -0.000   0.000   
    H    -0.000   0.000  -2.152   
    H     2.029   0.000   0.717   
    H    -1.015   1.757   0.717   
    H    -1.015  -1.757   0.717   
     5  
Molecule frame=     27 
    C     0.000  -0.000   0.000   
    H    -0.000   0.000  -2.141   
    H     2.018   0.000   0.714   
    H    -1.009   1.748   0.714   
    H    -1.009  -1.748   0.714   
     5  
Molecule frame=     28 
    C     0.000  -0.000   0.000   
    H    -0.000   0.000  -2.123   
    H     2.002   0.000   0.708   
    H    -1.001   1.733   0.708   
    H    -1.001  -1.733   0.708   
     5  
Molecule frame=     29 
    C     0.000  -0.000   0.000   
    H    -0.000   0.000  -2.103   
    H     1.982   0.000   0.701   
    H    -0.991   1.717   0.701   
    H    -0.991  -1.717   0.701   
     5  
Molecule frame=     30 
    C     0.000  -0.000   0.000   
    H    -0.000   0.000  -2.083   
    H     1.964   0.000   0.694   
    H    -0.982   1.701   0.694   
    H    -0.982  -1.701   0.694   
     5  
Molecule frame=     31 
    C     0.000  -0.000   0.000   
    H    -0.000  -0.000  -2.068   
    H     1.949   0.000   0.689   
    H    -0.975   1.688   0.689   
    H    -0.975  -1.688   0.689   
     5  
Molecule frame=     32 
    C     0.000  -0.000   0.000   
    H    -0.000  -0.000  -2.059   
    H     1.942   0.000   0.686   
    H    -0.971   1.682   0.686   
    H    -0.971  -1.682   0.686   
     5  
Molecule frame=     33 
    C     0.000  -0.000   0.000   
    H    -0.000  -0.000  -2.060   
    H     1.942   0.000   0.687   
    H    -0.971   1.682   0.687   
    H    -0.971  -1.682   0.687   
     5  
Molecule frame=     34 
    C     0.000  -0.000   0.000   
    H    -0.000  -0.000  -2.069   
    H     1.951   0.000   0.690   
    H    -0.976   1.690   0.690   
    H    -0.976  -1.690   0.690   
     5  
Molecule frame=     35 
    C     0.000   0.000   0.000   
    H    -0.000  -0.000  -2.086   
    H     1.966   0.000   0.695   
    H    -0.983   1.703   0.695   
    H    -0.983  -1.703   0.695   
     5  
Molecule frame=     36 
    C    -0.000   0.000   0.000   
    H    -0.000  -0.000  -2.106   
    H     1.985   0.000   0.702   
    H    -0.993   1.719   0.702   
    H    -0.993  -1.719   0.702   
     5  
Molecule frame=     37 
    C    -0.000   0.000   0.000   
    H    -0.000  -0.000  -2.126   
    H     2.004   0.000   0.709   
    H    -1.002   1.736   0.709   
    H    -1.002  -1.736   0.709   
     5  
Molecule frame=     38 
    C    -0.000   0.000  -0.000   
    H    -0.000  -0.000  -2.143   
    H     2.020  -0.000   0.714   
    H    -1.010   1.750   0.714   
    H    -1.010  -1.750   0.714   
     5  
Molecule frame=     39 
    C    -0.000   0.000  -0.000   
    H    -0.000  -0.000  -2.153   
    H     2.030  -0.000   0.718   
    H    -1.015   1.758   0.718   
    H    -1.015  -1.758   0.718   
     5  
Molecule frame=     40 
    C    -0.000   0.000  -0.000   
    H    -0.000  -0.000  -2.156   
    H     2.033  -0.000   0.719   
    H    -1.017   1.761   0.719   
    H    -1.017  -1.761   0.719   
     5  
Molecule frame=     41 
    C    -0.000   0.000  -0.000   
    H     0.000  -0.000  -2.151   
    H     2.028  -0.000   0.717   
    H    -1.014   1.756   0.717   
    H    -1.014  -1.756   0.717   
     5  
Molecule frame=     42 
    C    -0.000   0.000  -0.000   
    H     0.000  -0.000  -2.138   
    H     2.016  -0.000   0.713   
    H    -1.008   1.746   0.713   
    H    -1.008  -1.746   0.713   
     5  
Molecule frame=     43 
    C    -0.000   0.000  -0.000   
    H     0.000  -0.000  -2.120   
    H     1.999  -0.000   0.707   
    H    -0.999   1.731   0.707   
    H    -0.999  -1.731   0.707   
     5  
Molecule frame=     44 
    C    -0.000   0.000  -0.000   
    H     0.000  -0.000  -2.100   
    H     1.979  -0.000   0.700   
    H    -0.990   1.714   0.700   
    H    -0.990  -1.714   0.700   
     5  
Molecule frame=     45 
    C    -0.000   0.000  -0.000   
    H     0.000  -0.000  -2.080   
    H     1.961  -0.000   0.693   
    H    -0.981   1.699   0.693   
    H    -0.981  -1.699   0.693   
     5  
Molecule frame=     46 
    C    -0.000   0.000  -0.000   
    H     0.000  -0.000  -2.066   
    H     1.948  -0.000   0.689   
    H    -0.974   1.687   0.689   
    H    -0.974  -1.687   0.689   
     5  
Molecule frame=     47 
    C    -0.000   0.000  -0.000   
    H     0.000  -0.000  -2.059   
    H     1.941  -0.000   0.686   
    H    -0.971   1.681   0.686   
    H    -0.971  -1.681   0.686   
     5  
Molecule frame=     48 
    C    -0.000   0.000  -0.000   
    H     0.000  -0.000  -2.061   
    H     1.943  -0.000   0.687   
    H    -0.972   1.683   0.687   
    H    -0.972  -1.683   0.687   
     5  
Molecule frame=     49 
    C    -0.000   0.000  -0.000   
    H     0.000  -0.000  -2.072   
    H     1.953   0.000   0.691   
    H    -0.977   1.691   0.691   
    H    -0.977  -1.691   0.691   
