     6  
Molecule frame=      0 
    C     0.133   1.806  -0.000   
    H     1.046  -0.094   0.001   
    H    -1.969   1.645   0.001   
    C     1.373   3.954  -0.000   
    H     0.460   5.855   0.191   
    H     3.475   4.115   0.191   
     6  
Molecule frame=      1 
    C     0.133   1.806  -0.001   
    H     1.042  -0.099   0.004   
    H    -1.972   1.640   0.004   
    C     1.373   3.955  -0.002   
    H     0.463   5.860   0.197   
    H     3.477   4.120   0.197   
     6  
Molecule frame=      2 
    C     0.132   1.805  -0.001   
    H     1.037  -0.108   0.010   
    H    -1.976   1.631   0.010   
    C     1.374   3.956  -0.004   
    H     0.469   5.867   0.207   
    H     3.481   4.128   0.207   
     6  
Molecule frame=      3 
    C     0.132   1.804  -0.002   
    H     1.028  -0.118   0.018   
    H    -1.981   1.618   0.018   
    C     1.375   3.958  -0.006   
    H     0.476   5.876   0.222   
    H     3.485   4.140   0.221   
     6  
Molecule frame=      4 
    C     0.131   1.802  -0.003   
    H     1.017  -0.130   0.029   
    H    -1.986   1.603   0.029   
    C     1.376   3.959  -0.010   
    H     0.486   5.887   0.240   
    H     3.490   4.154   0.240   
     6  
Molecule frame=      5 
    C     0.130   1.801  -0.005   
    H     1.003  -0.144   0.042   
    H    -1.990   1.584   0.042   
    C     1.377   3.961  -0.014   
    H     0.499   5.898   0.263   
    H     3.493   4.170   0.263   
     6  
Molecule frame=      6 
    C     0.129   1.799  -0.007   
    H     0.986  -0.157   0.059   
    H    -1.994   1.563   0.059   
    C     1.378   3.963  -0.020   
    H     0.514   5.910   0.290   
    H     3.496   4.189   0.290   
     6  
Molecule frame=      7 
    C     0.128   1.798  -0.009   
    H     0.967  -0.170   0.078   
    H    -1.995   1.539   0.078   
    C     1.379   3.965  -0.026   
    H     0.532   5.920   0.321   
    H     3.495   4.210   0.321   
     6  
Molecule frame=      8 
    C     0.127   1.796  -0.012   
    H     0.944  -0.182   0.101   
    H    -1.994   1.513   0.101   
    C     1.380   3.967  -0.033   
    H     0.553   5.929   0.355   
    H     3.493   4.233   0.355   
     6  
Molecule frame=      9 
    C     0.127   1.795  -0.016   
    H     0.919  -0.193   0.126   
    H    -1.991   1.486   0.126   
    C     1.381   3.968  -0.040   
    H     0.577   5.935   0.393   
    H     3.486   4.257   0.393   
     6  
Molecule frame=     10 
    C     0.127   1.795  -0.019   
    H     0.891  -0.202   0.154   
    H    -1.985   1.458   0.154   
    C     1.382   3.970  -0.048   
    H     0.604   5.939   0.435   
    H     3.476   4.282   0.435   
     6  
Molecule frame=     11 
    C     0.127   1.795  -0.023   
    H     0.861  -0.209   0.185   
    H    -1.976   1.428   0.185   
    C     1.382   3.971  -0.056   
    H     0.633   5.940   0.479   
    H     3.462   4.307   0.479   
     6  
Molecule frame=     12 
    C     0.127   1.795  -0.028   
    H     0.830  -0.215   0.218   
    H    -1.966   1.398   0.218   
    C     1.382   3.971  -0.065   
    H     0.664   5.937   0.525   
    H     3.445   4.333   0.525   
     6  
Molecule frame=     13 
    C     0.127   1.796  -0.032   
    H     0.798  -0.219   0.253   
    H    -1.953   1.369   0.253   
    C     1.383   3.971  -0.074   
    H     0.697   5.932   0.573   
    H     3.423   4.359   0.573   
     6  
Molecule frame=     14 
    C     0.128   1.798  -0.038   
    H     0.766  -0.222   0.291   
    H    -1.940   1.339   0.290   
    C     1.383   3.971  -0.084   
    H     0.731   5.923   0.623   
    H     3.398   4.384   0.622   
     6  
Molecule frame=     15 
    C     0.129   1.800  -0.043   
    H     0.734  -0.223   0.330   
    H    -1.925   1.311   0.330   
    C     1.382   3.971  -0.093   
    H     0.767   5.912   0.673   
    H     3.371   4.409   0.672   
     6  
Molecule frame=     16 
    C     0.130   1.802  -0.049   
    H     0.703  -0.223   0.371   
    H    -1.909   1.284   0.370   
    C     1.382   3.970  -0.103   
    H     0.803   5.898   0.724   
    H     3.341   4.433   0.723   
     6  
Molecule frame=     17 
    C     0.132   1.804  -0.055   
    H     0.672  -0.221   0.413   
    H    -1.892   1.258   0.412   
    C     1.381   3.969  -0.113   
    H     0.838   5.881   0.775   
    H     3.309   4.456   0.774   
     6  
Molecule frame=     18 
    C     0.134   1.807  -0.061   
    H     0.644  -0.218   0.456   
    H    -1.875   1.236   0.455   
    C     1.380   3.967  -0.122   
    H     0.873   5.863   0.826   
    H     3.276   4.477   0.825   
     6  
Molecule frame=     19 
    C     0.135   1.810  -0.068   
    H     0.618  -0.213   0.500   
    H    -1.858   1.215   0.498   
    C     1.379   3.966  -0.131   
    H     0.907   5.843   0.876   
    H     3.242   4.497   0.875   
     6  
Molecule frame=     20 
    C     0.137   1.813  -0.074   
    H     0.595  -0.206   0.544   
    H    -1.840   1.199   0.542   
    C     1.379   3.964  -0.140   
    H     0.939   5.822   0.925   
    H     3.207   4.514   0.923   
     6  
Molecule frame=     21 
    C     0.138   1.815  -0.081   
    H     0.574  -0.196   0.587   
    H    -1.822   1.186   0.584   
    C     1.378   3.963  -0.149   
    H     0.969   5.800   0.972   
    H     3.174   4.529   0.970   
     6  
Molecule frame=     22 
    C     0.139   1.817  -0.087   
    H     0.557  -0.184   0.629   
    H    -1.803   1.177   0.626   
    C     1.377   3.961  -0.157   
    H     0.997   5.778   1.017   
    H     3.140   4.542   1.014   
     6  
Molecule frame=     23 
    C     0.140   1.818  -0.094   
    H     0.544  -0.170   0.670   
    H    -1.784   1.173   0.666   
    C     1.376   3.960  -0.164   
    H     1.021   5.755   1.060   
    H     3.108   4.551   1.056   
     6  
Molecule frame=     24 
    C     0.140   1.819  -0.100   
    H     0.536  -0.154   0.709   
    H    -1.766   1.174   0.704   
    C     1.376   3.959  -0.171   
    H     1.041   5.731   1.099   
    H     3.078   4.558   1.095   
     6  
Molecule frame=     25 
    C     0.141   1.819  -0.106   
    H     0.532  -0.135   0.746   
    H    -1.749   1.180   0.740   
    C     1.375   3.959  -0.177   
    H     1.058   5.708   1.135   
    H     3.050   4.560   1.130   
     6  
Molecule frame=     26 
    C     0.140   1.819  -0.112   
    H     0.534  -0.115   0.780   
    H    -1.732   1.191   0.773   
    C     1.375   3.959  -0.182   
    H     1.069   5.686   1.167   
    H     3.026   4.559   1.161   
     6  
Molecule frame=     27 
    C     0.140   1.818  -0.117   
    H     0.540  -0.094   0.812   
    H    -1.718   1.207   0.804   
    C     1.375   3.959  -0.187   
    H     1.076   5.664   1.196   
    H     3.004   4.554   1.188   
     6  
Molecule frame=     28 
    C     0.139   1.816  -0.122   
    H     0.553  -0.073   0.841   
    H    -1.706   1.228   0.832   
    C     1.376   3.959  -0.191   
    H     1.077   5.643   1.220   
    H     2.987   4.545   1.211   
     6  
Molecule frame=     29 
    C     0.138   1.814  -0.127   
    H     0.571  -0.052   0.868   
    H    -1.698   1.254   0.857   
    C     1.376   3.960  -0.193   
    H     1.072   5.625   1.240   
    H     2.974   4.532   1.229   
     6  
Molecule frame=     30 
    C     0.136   1.812  -0.131   
    H     0.594  -0.031   0.891   
    H    -1.692   1.284   0.878   
    C     1.377   3.961  -0.195   
    H     1.061   5.607   1.256   
    H     2.966   4.515   1.243   
     6  
Molecule frame=     31 
    C     0.135   1.809  -0.135   
    H     0.623  -0.010   0.912   
    H    -1.690   1.319   0.896   
    C     1.377   3.962  -0.196   
    H     1.045   5.592   1.267   
    H     2.962   4.494   1.252   
     6  
Molecule frame=     32 
    C     0.133   1.806  -0.139   
    H     0.658   0.009   0.929   
    H    -1.692   1.358   0.911   
    C     1.378   3.964  -0.196   
    H     1.023   5.579   1.274   
    H     2.963   4.469   1.256   
     6  
Molecule frame=     33 
    C     0.131   1.803  -0.142   
    H     0.697   0.029   0.944   
    H    -1.696   1.401   0.923   
    C     1.379   3.965  -0.195   
    H     0.996   5.567   1.276   
    H     2.969   4.441   1.256   
     6  
Molecule frame=     34 
    C     0.129   1.799  -0.145   
    H     0.740   0.047   0.955   
    H    -1.704   1.446   0.931   
    C     1.379   3.967  -0.194   
    H     0.964   5.557   1.275   
    H     2.978   4.410   1.251   
     6  
Molecule frame=     35 
    C     0.127   1.796  -0.147   
    H     0.787   0.066   0.963   
    H    -1.713   1.495   0.935   
    C     1.380   3.968  -0.191   
    H     0.928   5.549   1.269   
    H     2.992   4.377   1.241   
     6  
Molecule frame=     36 
    C     0.125   1.792  -0.149   
    H     0.836   0.085   0.968   
    H    -1.724   1.545   0.934   
    C     1.381   3.969  -0.188   
    H     0.889   5.541   1.260   
    H     3.009   4.342   1.227   
     6  
Molecule frame=     37 
    C     0.123   1.789  -0.150   
    H     0.887   0.105   0.969   
    H    -1.735   1.597   0.930   
    C     1.381   3.970  -0.184   
    H     0.847   5.536   1.247   
    H     3.029   4.306   1.208   
     6  
Molecule frame=     38 
    C     0.121   1.786  -0.151   
    H     0.939   0.126   0.968   
    H    -1.747   1.649   0.921   
    C     1.382   3.970  -0.179   
    H     0.803   5.531   1.232   
    H     3.052   4.269   1.186   
     6  
Molecule frame=     39 
    C     0.119   1.783  -0.151   
    H     0.992   0.149   0.964   
    H    -1.759   1.702   0.908   
    C     1.382   3.970  -0.174   
    H     0.757   5.527   1.215   
    H     3.079   4.233   1.159   
     6  
Molecule frame=     40 
    C     0.118   1.781  -0.151   
    H     1.044   0.173   0.958   
    H    -1.771   1.753   0.890   
    C     1.382   3.969  -0.168   
    H     0.709   5.522   1.196   
    H     3.108   4.198   1.127   
     6  
Molecule frame=     41 
    C     0.115   1.779  -0.150   
    H     1.096   0.199   0.952   
    H    -1.783   1.801   0.867   
    C     1.382   3.968  -0.161   
    H     0.660   5.517   1.178   
    H     3.140   4.165   1.090   
     6  
Molecule frame=     42 
    C     0.113   1.778  -0.149   
    H     1.147   0.229   0.946   
    H    -1.796   1.846   0.838   
    C     1.383   3.966  -0.154   
    H     0.609   5.510   1.161   
    H     3.175   4.135   1.046   
     6  
Molecule frame=     43 
    C     0.110   1.777  -0.147   
    H     1.198   0.264   0.943   
    H    -1.811   1.885   0.801   
    C     1.384   3.964  -0.147   
    H     0.555   5.498   1.145   
    H     3.214   4.108   0.993   
     6  
Molecule frame=     44 
    C     0.106   1.776  -0.145   
    H     1.249   0.304   0.943   
    H    -1.827   1.919   0.757   
    C     1.386   3.962  -0.139   
    H     0.498   5.480   1.132   
    H     3.257   4.085   0.930   
     6  
Molecule frame=     45 
    C     0.101   1.775  -0.143   
    H     1.298   0.348   0.947   
    H    -1.846   1.946   0.705   
    C     1.390   3.961  -0.130   
    H     0.438   5.456   1.121   
    H     3.302   4.065   0.857   
     6  
Molecule frame=     46 
    C     0.094   1.775  -0.141   
    H     1.346   0.397   0.954   
    H    -1.867   1.967   0.648   
    C     1.395   3.959  -0.120   
    H     0.377   5.426   1.112   
    H     3.348   4.048   0.774   
     6  
Molecule frame=     47 
    C     0.088   1.774  -0.138   
    H     1.391   0.450   0.966   
    H    -1.891   1.981   0.585   
    C     1.402   3.959  -0.110   
    H     0.316   5.389   1.105   
    H     3.395   4.034   0.682   
     6  
Molecule frame=     48 
    C     0.080   1.774  -0.135   
    H     1.432   0.506   0.981   
    H    -1.917   1.988   0.518   
    C     1.409   3.958  -0.100   
    H     0.256   5.347   1.101   
    H     3.441   4.023   0.583   
     6  
Molecule frame=     49 
    C     0.072   1.774  -0.133   
    H     1.468   0.564   1.001   
    H    -1.947   1.988   0.447   
    C     1.417   3.957  -0.089   
    H     0.199   5.300   1.098   
    H     3.484   4.017   0.478   
     6  
Molecule frame=     50 
    C     0.065   1.775  -0.130   
    H     1.500   0.624   1.025   
    H    -1.978   1.981   0.374   
    C     1.426   3.957  -0.079   
    H     0.145   5.249   1.099   
    H     3.524   4.015   0.367   
     6  
Molecule frame=     51 
    C     0.040   1.778  -0.119   
    H     1.602   0.624   1.026   
    H    -1.981   2.042   0.203   
    C     1.445   3.958  -0.066   
    H     0.109   5.064   1.125   
    H     3.535   4.085   0.231   
     6  
Molecule frame=     52 
    C     0.018   1.782  -0.107   
    H     1.687   0.622   1.011   
    H    -1.991   2.098   0.034   
    C     1.463   3.958  -0.053   
    H     0.075   4.894   1.144   
    H     3.543   4.157   0.093   
     6  
Molecule frame=     53 
    C     0.001   1.787  -0.093   
    H     1.749   0.620   0.978   
    H    -2.011   2.147  -0.133   
    C     1.479   3.956  -0.040   
    H     0.037   4.744   1.162   
    H     3.550   4.231  -0.045   
     6  
Molecule frame=     54 
    C    -0.006   1.788  -0.081   
    H     1.742   0.635   0.904   
    H    -2.043   2.226  -0.274   
    C     1.494   3.954  -0.026   
    H    -0.003   4.587   1.178   
    H     3.535   4.290  -0.167   
     6  
Molecule frame=     55 
    C    -0.009   1.791  -0.067   
    H     1.709   0.647   0.815   
    H    -2.077   2.295  -0.409   
    C     1.508   3.951  -0.012   
    H    -0.054   4.455   1.202   
    H     3.522   4.350  -0.285   
     6  
Molecule frame=     56 
    C    -0.008   1.796  -0.054   
    H     1.655   0.653   0.713   
    H    -2.106   2.353  -0.538   
    C     1.520   3.944   0.001   
    H    -0.115   4.347   1.234   
    H     3.512   4.410  -0.398   
     6  
Molecule frame=     57 
    C    -0.006   1.803  -0.040   
    H     1.586   0.646   0.603   
    H    -2.121   2.398  -0.657   
    C     1.530   3.936   0.012   
    H    -0.181   4.262   1.271   
    H     3.502   4.470  -0.504   
     6  
Molecule frame=     58 
    C    -0.002   1.814  -0.028   
    H     1.512   0.616   0.490   
    H    -2.117   2.426  -0.765   
    C     1.539   3.926   0.023   
    H    -0.247   4.195   1.310   
    H     3.489   4.529  -0.602   
     6  
Molecule frame=     59 
    C     0.002   1.829  -0.017   
    H     1.445   0.551   0.382   
    H    -2.091   2.437  -0.858   
    C     1.546   3.915   0.033   
    H    -0.311   4.142   1.348   
    H     3.468   4.587  -0.692   
     6  
Molecule frame=     60 
    C     0.004   1.848  -0.007   
    H     1.386   0.452   0.274   
    H    -2.044   2.431  -0.936   
    C     1.552   3.904   0.043   
    H    -0.366   4.103   1.382   
    H     3.438   4.641  -0.768   
     6  
Molecule frame=     61 
    C     0.006   1.871   0.002   
    H     1.329   0.320   0.164   
    H    -1.979   2.409  -0.999   
    C     1.556   3.892   0.052   
    H    -0.407   4.076   1.409   
    H     3.396   4.693  -0.829   
     6  
Molecule frame=     62 
    C     0.009   1.896   0.009   
    H     1.269   0.166   0.051   
    H    -1.899   2.374  -1.048   
    C     1.559   3.880   0.060   
    H    -0.434   4.058   1.428   
    H     3.340   4.741  -0.873   
     6  
Molecule frame=     63 
    C     0.018   1.906   0.005   
    H     1.150   0.072  -0.055   
    H    -1.787   2.368  -1.044   
    C     1.562   3.870   0.073   
    H    -0.460   4.112   1.472   
    H     3.230   4.793  -0.919   
     6  
Molecule frame=     64 
    C     0.029   1.913  -0.001   
    H     1.020  -0.028  -0.171   
    H    -1.691   2.351  -1.017   
    C     1.562   3.860   0.087   
    H    -0.462   4.188   1.493   
    H     3.137   4.865  -0.957   
     6  
Molecule frame=     65 
    C     0.043   1.920  -0.006   
    H     0.879  -0.126  -0.287   
    H    -1.613   2.328  -0.988   
    C     1.560   3.850   0.102   
    H    -0.444   4.272   1.500   
    H     3.039   4.937  -0.980   
     6  
Molecule frame=     66 
    C     0.056   1.931  -0.012   
    H     0.747  -0.265  -0.402   
    H    -1.567   2.306  -1.004   
    C     1.559   3.843   0.116   
    H    -0.412   4.335   1.501   
    H     2.936   4.983  -0.960   
     6  
Molecule frame=     67 
    C     0.076   1.932  -0.014   
    H     0.578  -0.258  -0.517   
    H    -1.495   2.282  -0.939   
    C     1.552   3.845   0.123   
    H    -0.344   4.334   1.471   
    H     2.824   4.969  -0.944   
     6  
Molecule frame=     68 
    C     0.100   1.928  -0.015   
    H     0.406  -0.232  -0.627   
    H    -1.481   2.264  -0.891   
    C     1.543   3.848   0.132   
    H    -0.261   4.341   1.427   
    H     2.726   4.966  -0.924   
     6  
Molecule frame=     69 
    C     0.127   1.919  -0.016   
    H     0.237  -0.192  -0.732   
    H    -1.532   2.253  -0.859   
    C     1.532   3.851   0.142   
    H    -0.169   4.361   1.376   
    H     2.651   4.981  -0.910   
     6  
Molecule frame=     70 
    C     0.156   1.906  -0.017   
    H     0.073  -0.142  -0.832   
    H    -1.635   2.250  -0.835   
    C     1.521   3.854   0.154   
    H    -0.078   4.397   1.325   
    H     2.605   5.020  -0.905   
     6  
Molecule frame=     71 
    C     0.186   1.889  -0.020   
    H    -0.080  -0.085  -0.926   
    H    -1.769   2.252  -0.806   
    C     1.511   3.857   0.166   
    H     0.001   4.455   1.284   
    H     2.588   5.080  -0.910   
     6  
Molecule frame=     72 
    C     0.214   1.867  -0.025   
    H    -0.222  -0.024  -1.016   
    H    -1.913   2.256  -0.763   
    C     1.502   3.860   0.177   
    H     0.054   4.540   1.261   
    H     2.595   5.156  -0.921   
     6  
Molecule frame=     73 
    C     0.238   1.842  -0.032   
    H    -0.348   0.039  -1.102   
    H    -2.048   2.260  -0.699   
    C     1.496   3.863   0.187   
    H     0.078   4.655   1.262   
    H     2.619   5.239  -0.931   
     6  
Molecule frame=     74 
    C     0.254   1.818  -0.047   
    H    -0.379   0.227  -1.118   
    H    -2.060   2.230  -0.573   
    C     1.479   3.872   0.203   
    H     0.096   4.683   1.164   
    H     2.652   5.223  -0.958   
     6  
Molecule frame=     75 
    C     0.266   1.794  -0.063   
    H    -0.399   0.394  -1.143   
    H    -2.053   2.199  -0.425   
    C     1.466   3.881   0.217   
    H     0.076   4.748   1.095   
    H     2.692   5.201  -0.976   
     6  
Molecule frame=     76 
    C     0.277   1.771  -0.079   
    H    -0.417   0.516  -1.194   
    H    -2.028   2.169  -0.259   
    C     1.456   3.890   0.227   
    H     0.017   4.851   1.056   
    H     2.735   5.170  -0.982   
     6  
Molecule frame=     77 
    C     0.285   1.753  -0.094   
    H    -0.441   0.580  -1.286   
    H    -1.986   2.140  -0.076   
    C     1.449   3.898   0.235   
    H    -0.068   4.983   1.038   
    H     2.779   5.130  -0.975   
     6  
Molecule frame=     78 
    C     0.293   1.737  -0.106   
    H    -0.471   0.591  -1.422   
    H    -1.930   2.111   0.121   
    C     1.443   3.907   0.241   
    H    -0.158   5.132   1.030   
    H     2.823   5.079  -0.956   
     6  
Molecule frame=     79 
    C     0.300   1.725  -0.117   
    H    -0.500   0.564  -1.587   
    H    -1.861   2.081   0.330   
    C     1.436   3.916   0.246   
    H    -0.238   5.281   1.025   
    H     2.866   5.020  -0.925   
     6  
Molecule frame=     80 
    C     0.292   1.718  -0.145   
    H    -0.447   0.549  -1.666   
    H    -1.743   2.024   0.562   
    C     1.421   3.924   0.261   
    H    -0.226   5.394   1.050   
    H     2.966   4.970  -0.950   
     6  
Molecule frame=     81 
    C     0.283   1.714  -0.173   
    H    -0.384   0.521  -1.751   
    H    -1.619   1.965   0.800   
    C     1.403   3.932   0.276   
    H    -0.188   5.492   1.072   
    H     3.057   4.910  -0.961   
     6  
Molecule frame=     82 
    C     0.272   1.711  -0.201   
    H    -0.311   0.486  -1.836   
    H    -1.493   1.901   1.039   
    C     1.385   3.943   0.289   
    H    -0.124   5.571   1.089   
    H     3.132   4.839  -0.955   
     6  
Molecule frame=     83 
    C     0.261   1.711  -0.228   
    H    -0.227   0.448  -1.916   
    H    -1.363   1.831   1.275   
    C     1.367   3.954   0.300   
    H    -0.034   5.629   1.103   
    H     3.187   4.759  -0.932   
     6  
Molecule frame=     84 
    C     0.249   1.712  -0.255   
    H    -0.133   0.412  -1.983   
    H    -1.227   1.756   1.499   
    C     1.348   3.966   0.309   
    H     0.077   5.667   1.114   
    H     3.220   4.671  -0.892   
     6  
Molecule frame=     85 
    C     0.235   1.716  -0.280   
    H    -0.031   0.382  -2.034   
    H    -1.083   1.674   1.703   
    C     1.329   3.978   0.316   
    H     0.205   5.686   1.123   
    H     3.229   4.577  -0.837   
     6  
Molecule frame=     86 
    C     0.221   1.722  -0.303   
    H     0.078   0.359  -2.066   
    H    -0.929   1.588   1.877   
    C     1.310   3.988   0.320   
    H     0.346   5.693   1.135   
    H     3.218   4.480  -0.770   
     6  
Molecule frame=     87 
    C     0.207   1.730  -0.323   
    H     0.191   0.347  -2.077   
    H    -0.767   1.499   2.015   
    C     1.292   3.997   0.322   
    H     0.491   5.693   1.153   
    H     3.189   4.384  -0.696   
     6  
Molecule frame=     88 
    C     0.192   1.739  -0.340   
    H     0.308   0.344  -2.067   
    H    -0.597   1.408   2.111   
    C     1.274   4.003   0.321   
    H     0.635   5.696   1.181   
    H     3.151   4.291  -0.620   
     6  
Molecule frame=     89 
    C     0.169   1.727  -0.351   
    H     0.399   0.443  -2.002   
    H    -0.408   1.335   2.137   
    C     1.262   4.018   0.317   
    H     0.701   5.709   1.163   
    H     3.218   4.228  -0.514   
     6  
Molecule frame=     90 
    C     0.147   1.717  -0.357   
    H     0.493   0.541  -1.931   
    H    -0.220   1.264   2.119   
    C     1.250   4.028   0.310   
    H     0.759   5.738   1.162   
    H     3.283   4.171  -0.412   
     6  
Molecule frame=     91 
    C     0.125   1.712  -0.354   
    H     0.608   0.616  -1.910   
    H    -0.039   1.190   2.072   
    C     1.235   4.036   0.302   
    H     0.814   5.742   1.166   
    H     3.371   4.119  -0.330   
     6  
Molecule frame=     92 
    C     0.103   1.712  -0.346   
    H     0.733   0.673  -1.904   
    H     0.133   1.120   1.986   
    C     1.222   4.040   0.292   
    H     0.860   5.765   1.189   
    H     3.444   4.074  -0.253   
     6  
Molecule frame=     93 
    C     0.083   1.716  -0.333   
    H     0.867   0.714  -1.912   
    H     0.295   1.056   1.868   
    C     1.210   4.038   0.280   
    H     0.901   5.802   1.229   
    H     3.496   4.034  -0.179   
     6  
Molecule frame=     94 
    C     0.064   1.725  -0.315   
    H     1.010   0.734  -1.928   
    H     0.447   1.003   1.725   
    C     1.199   4.032   0.265   
    H     0.935   5.829   1.275   
    H     3.510   3.996  -0.102   
     6  
Molecule frame=     95 
    C     0.046   1.738  -0.300   
    H     1.153   0.746  -1.929   
    H     0.588   0.942   1.585   
    C     1.190   4.024   0.251   
    H     0.969   5.858   1.322   
    H     3.509   3.955  -0.017   
     6  
Molecule frame=     96 
    C     0.030   1.753  -0.284   
    H     1.292   0.762  -1.918   
    H     0.718   0.879   1.447   
    C     1.183   4.014   0.236   
    H     0.999   5.878   1.371   
    H     3.484   3.921   0.061   
     6  
Molecule frame=     97 
    C     0.016   1.769  -0.271   
    H     1.420   0.787  -1.893   
    H     0.840   0.811   1.323   
    C     1.178   4.004   0.221   
    H     1.026   5.885   1.415   
    H     3.436   3.894   0.129   
     6  
Molecule frame=     98 
    C     0.004   1.786  -0.260   
    H     1.535   0.822  -1.850   
    H     0.956   0.734   1.215   
    C     1.175   3.993   0.208   
    H     1.048   5.875   1.452   
    H     3.372   3.875   0.187   
